                                  MODFLOW-2005     
      U.S. GEOLOGICAL SURVEY MODULAR FINITE-DIFFERENCE GROUND-WATER FLOW MODEL
                            VERSION 1.11.00 8/8/2013

 LIST FILE: Model_for_Pirna.lst
                         UNIT   11

 OPENING Model_for_Pirna.cbc
 FILE TYPE:DATA(BINARY)   UNIT    9   STATUS:REPLACE
 FORMAT:UNFORMATTED            ACCESS:STREAM              

 OPENING Model_for_Pirna.dis
 FILE TYPE:DIS   UNIT   12   STATUS:OLD    
 FORMAT:FORMATTED              ACCESS:SEQUENTIAL          

 OPENING Model_for_Pirna.bas
 FILE TYPE:BAS6   UNIT   13   STATUS:OLD    
 FORMAT:FORMATTED              ACCESS:SEQUENTIAL          

 OPENING Model_for_Pirna.oc
 FILE TYPE:OC   UNIT   39   STATUS:OLD    
 FORMAT:FORMATTED              ACCESS:SEQUENTIAL          

 OPENING Model_for_Pirna.fhd
 FILE TYPE:DATA   UNIT   37   STATUS:REPLACE
 FORMAT:FORMATTED              ACCESS:SEQUENTIAL          

 OPENING Model_for_Pirna.fdn
 FILE TYPE:DATA   UNIT   38   STATUS:REPLACE
 FORMAT:FORMATTED              ACCESS:SEQUENTIAL          

 OPENING Model_for_Pirna.pcg
 FILE TYPE:PCG   UNIT   18   STATUS:OLD    
 FORMAT:FORMATTED              ACCESS:SEQUENTIAL          

 OPENING Model_for_Pirna.lpf
 FILE TYPE:LPF   UNIT   14   STATUS:OLD    
 FORMAT:FORMATTED              ACCESS:SEQUENTIAL          

 OPENING Model_for_Pirna.chd
 FILE TYPE:CHD   UNIT   17   STATUS:OLD    
 FORMAT:FORMATTED              ACCESS:SEQUENTIAL          

 OPENING Model_for_Pirna.rch
 FILE TYPE:RCH   UNIT   24   STATUS:OLD    
 FORMAT:FORMATTED              ACCESS:SEQUENTIAL          

 OPENING Model_for_Pirna.ob_hob
 FILE TYPE:HOB   UNIT   41   STATUS:OLD    
 FORMAT:FORMATTED              ACCESS:SEQUENTIAL          

 OPENING Model_for_Pirna.hob_out
 FILE TYPE:DATA   UNIT   42   STATUS:REPLACE
 FORMAT:FORMATTED              ACCESS:SEQUENTIAL          

 BAS -- BASIC PACKAGE, VERSION 7, 5/2/2005 INPUT READ FROM UNIT   13

 MODFLOW was compiled using mixed precision
 Precision of REAL variables:           6
 Precision of DOUBLE PRECISION variables:          15

 DISCRETIZATION INPUT DATA READ FROM UNIT   12
 # Discretization File created on 07.07.2016 by ModelMuse version 3.7.1.0.
 # Upper left corner: (5424432.6894875, 5648440.1473251)
 # Lower left corner: (5424432.6894875, 5648260.1473251)
 # Upper right corner: (5424572.4672653, 5648440.1473251)
 # Lower right corner: (5424572.4672653, 5648260.1473251)
 # Grid angle (in degrees counterclockwise): 0
    5 LAYERS        22 ROWS        17 COLUMNS
  132 STRESS PERIOD(S) IN SIMULATION
 MODEL TIME UNIT IS SECONDS
 MODEL LENGTH UNIT IS METERS
  Confining bed flag for each layer:
   0   0   0   0   0



                               DELR
 READING ON UNIT   12 WITH FORMAT: (FREE)              
   8.0000       8.0000       8.0000       8.0000       8.0000    
   8.0000       8.0000       8.0000       8.0000       8.0000    
   8.0000       8.0000       8.0000       8.0000       8.0000    
   8.0000       11.778    



                               DELC
 READING ON UNIT   12 WITH FORMAT: (FREE)              
   12.000       8.0000       8.0000       8.0000       8.0000    
   8.0000       8.0000       8.0000       8.0000       8.0000    
   8.0000       8.0000       8.0000       8.0000       8.0000    
   8.0000       8.0000       8.0000       8.0000       8.0000    
   8.0000       8.0000    



           TOP ELEVATION OF LAYER 1
 READING ON UNIT   12 WITH FORMAT: (FREE)              

            1           2           3           4           5           6           7           8           9          10
           11          12          13          14          15          16          17
 ........................................................................................................................
   1    119.3       119.3       119.3       119.3       119.3       119.3       119.3       119.3       119.3       119.3    
        119.3       119.0       118.8       118.6       118.3       118.1       117.8    
   2    119.3       119.3       119.3       119.3       119.3       119.3       119.3       119.3       119.3       119.3    
        119.0       118.8       118.5       118.3       118.1       117.8       117.5    
   3    119.3       119.3       119.3       119.3       119.3       119.3       119.3       119.3       119.3       119.0    
        118.8       118.6       118.3       118.1       117.9       117.6       117.3    
   4    119.3       119.3       119.3       119.3       119.3       119.3       119.2       119.2       119.0       118.8    
        118.6       118.4       118.1       117.9       117.6       117.4       117.1    
   5    119.4       119.4       119.4       119.3       119.2       119.2       119.1       118.9       118.7       118.5    
        118.3       118.1       117.9       117.7       117.4       117.2       116.9    
   6    119.5       119.5       119.5       119.3       119.1       119.0       118.8       118.6       118.4       118.2    
        118.0       117.8       117.7       117.5       117.2       117.0       116.7    
   7    119.5       119.4       119.0       118.6       118.5       118.4       118.4       118.2       118.1       117.9    
        117.7       117.5       117.3       117.2       117.0       116.8       116.5    
   8    119.0       118.6       118.2       117.8       117.6       117.6       117.7       117.7       117.6       117.4    
        117.2       117.1       116.9       116.8       116.8       116.6       116.3    
   9    118.2       117.8       117.4       117.1       116.9       116.8       116.9       116.9       117.0       116.9    
        116.7       116.6       116.4       116.4       116.3       116.3       116.1    
  10    117.5       117.1       117.0       117.0       116.9       116.7       116.5       116.4       116.2       116.2    
        116.2       116.1       116.0       116.0       115.9       116.0       116.1    
  11    117.0       117.0       117.0       117.0       116.8       116.7       116.5       116.3       116.2       116.0    
        115.8       115.7       115.8       115.9       115.9       116.0       116.1    
  12    117.0       117.0       117.0       116.9       116.8       116.6       116.4       116.3       116.1       116.0    
        115.8       115.7       115.8       115.8       115.9       116.0       116.1    
  13    117.0       117.0       117.0       116.9       116.7       116.6       116.4       116.2       116.1       115.9    
        115.8       115.7       115.7       115.8       115.9       116.0       116.1    
  14    117.0       117.0       117.0       116.8       116.7       116.5       116.4       116.2       116.0       115.9    
        115.7       115.7       115.7       115.8       115.9       115.9       116.0    
  15    117.0       117.0       117.0       116.8       116.6       116.5       116.3       116.2       116.0       115.8    
        115.7       115.7       115.7       115.8       115.9       115.9       116.0    
  16    117.0       117.0       116.9       116.8       116.6       116.4       116.3       116.1       115.9       115.8    
        115.7       115.7       115.7       115.8       115.8       115.9       116.0    
  17    117.0       117.0       116.9       116.7       116.5       116.4       116.2       116.1       115.9       115.7    
        115.7       115.7       115.7       115.8       115.8       115.9       116.0    
  18    117.0       117.0       116.8       116.7       116.5       116.3       116.2       116.0       115.9       115.7    
        115.7       115.7       115.7       115.7       115.8       115.9       116.0    
  19    117.0       116.9       116.8       116.6       116.5       116.3       116.1       116.0       115.8       115.7    
        115.7       115.7       115.7       115.7       115.8       115.9       116.0    
  20    117.0       116.9       116.7       116.6       116.4       116.3       116.1       115.9       115.8       115.7    
        115.7       115.7       115.7       115.7       115.8       115.8       115.9    
  21    117.0       116.9       116.7       116.5       116.4       116.2       116.0       115.9       115.7       115.7    
        115.7       115.7       115.7       115.7       115.8       115.8       115.9    
  22    117.0       116.8       116.7       116.5       116.3       116.2       116.0       115.8       115.7       115.7    
        115.7       115.7       115.7       115.7       115.7       115.8       115.9    



             MODEL LAYER BOTTOM EL. FOR LAYER   1
 READING ON UNIT   12 WITH FORMAT: (FREE)              

            1           2           3           4           5           6           7           8           9          10
           11          12          13          14          15          16          17
 ........................................................................................................................
   1    112.0       112.0       112.1       112.2       112.3       112.3       112.4       112.5       112.5       112.5    
        112.5       112.5       112.5       112.4       112.4       112.4       112.3    
   2    112.0       112.0       112.1       112.1       112.2       112.3       112.4       112.5       112.5       112.5    
        112.5       112.5       112.4       112.4       112.4       112.3       112.3    
   3    112.0       112.0       112.0       112.1       112.2       112.3       112.4       112.4       112.5       112.5    
        112.5       112.4       112.4       112.4       112.3       112.3       112.3    
   4    112.0       112.0       112.0       112.1       112.2       112.2       112.2       112.2       112.4       112.5    
        112.4       112.4       112.4       112.3       112.3       112.3       112.3    
   5    112.2       112.2       112.1       112.0       112.0       112.0       112.0       112.1       112.2       112.3    
        112.4       112.4       112.4       112.3       112.3       112.3       112.2    
   6    112.5       112.5       112.4       112.2       111.9       111.8       111.9       112.0       112.1       112.2    
        112.3       112.4       112.3       112.3       112.3       112.2       112.2    
   7    112.5       112.4       112.3       112.2       111.8       111.6       111.6       111.7       111.9       112.0    
        112.1       112.2       112.4       112.3       112.2       112.2       112.2    
   8    112.3       112.2       112.1       112.0       111.8       111.6       111.5       111.4       111.5       111.6    
        111.8       111.9       112.1       112.2       112.2       112.2       112.1    
   9    112.1       112.0       111.9       111.8       111.7       111.6       111.5       111.4       111.2       111.2    
        111.4       111.5       111.7       111.8       112.0       112.2       112.1    
  10    111.9       111.8       111.8       111.8       111.7       111.6       111.5       111.3       111.2       111.1    
        111.0       111.1       111.3       111.5       111.7       111.9       112.1    
  11    111.8       111.8       111.8       111.8       111.7       111.5       111.4       111.3       111.2       111.1    
        110.9       110.8       111.1       111.4       111.6       111.9       112.1    
  12    111.8       111.8       111.8       111.8       111.6       111.5       111.4       111.3       111.1       111.0    
        110.9       110.8       111.0       111.3       111.5       111.8       112.1    
  13    111.8       111.8       111.8       111.7       111.6       111.5       111.4       111.2       111.1       111.0    
        110.9       110.8       111.0       111.2       111.5       111.7       112.1    
  14    111.8       111.8       111.8       111.7       111.6       111.4       111.3       111.2       111.1       111.0    
        110.8       110.8       110.9       111.2       111.4       111.7       112.0    
  15    111.8       111.8       111.8       111.7       111.5       111.4       111.3       111.2       111.0       110.9    
        110.8       110.8       110.8       111.1       111.4       111.6       111.9    
  16    111.8       111.8       111.8       111.6       111.5       111.4       111.3       111.1       111.0       110.9    
        110.8       110.8       110.8       111.0       111.3       111.5       111.9    
  17    111.8       111.8       111.7       111.6       111.5       111.3       111.2       111.1       111.0       110.8    
        110.8       110.8       110.8       111.0       111.2       111.5       111.8    
  18    111.8       111.8       111.7       111.6       111.4       111.3       111.2       111.1       110.9       110.8    
        110.8       110.8       110.8       110.9       111.2       111.4       111.7    
  19    111.8       111.8       111.6       111.5       111.4       111.3       111.2       111.0       110.9       110.8    
        110.8       110.8       110.8       110.8       111.1       111.4       111.7    
  20    111.8       111.7       111.6       111.5       111.4       111.2       111.1       111.0       110.9       110.8    
        110.8       110.8       110.8       110.8       111.0       111.3       111.6    
  21    111.8       111.7       111.6       111.5       111.3       111.2       111.1       111.0       110.8       110.8    
        110.8       110.8       110.8       110.8       111.0       111.2       111.6    
  22    111.8       111.7       111.5       111.4       111.3       111.2       111.1       110.9       110.8       110.8    
        110.8       110.8       110.8       110.8       110.9       111.2       111.5    



             MODEL LAYER BOTTOM EL. FOR LAYER   2
 READING ON UNIT   12 WITH FORMAT: (FREE)              

            1           2           3           4           5           6           7           8           9          10
           11          12          13          14          15          16          17
 ........................................................................................................................
   1    108.7       108.7       108.7       108.8       108.8       108.9       108.9       109.0       109.0       109.0    
        109.0       109.0       108.9       108.8       108.8       108.7       108.6    
   2    108.7       108.7       108.7       108.8       108.8       108.9       108.9       109.0       109.0       109.0    
        109.0       108.9       108.8       108.8       108.7       108.6       108.6    
   3    108.7       108.7       108.7       108.7       108.8       108.8       108.9       109.0       109.0       109.0    
        108.9       108.8       108.8       108.7       108.6       108.6       108.5    
   4    108.7       108.7       108.7       108.7       108.8       108.8       108.7       108.7       108.8       108.9    
        108.8       108.8       108.7       108.6       108.6       108.5       108.4    
   5    108.7       108.7       108.7       108.6       108.5       108.5       108.4       108.5       108.6       108.6    
        108.7       108.7       108.7       108.6       108.5       108.5       108.4    
   6    108.8       108.8       108.8       108.6       108.2       108.1       108.2       108.3       108.4       108.4    
        108.5       108.6       108.6       108.5       108.5       108.4       108.3    
   7    108.8       108.8       108.9       108.9       108.6       108.2       108.1       108.1       108.2       108.2    
        108.3       108.4       108.5       108.5       108.4       108.3       108.3    
   8    108.9       109.0       109.1       109.2       109.0       108.7       108.4       108.1       108.1       108.2    
        108.2       108.3       108.3       108.4       108.4       108.3       108.2    
   9    109.1       109.2       109.2       109.3       109.3       109.1       108.8       108.5       108.2       108.1    
        108.2       108.2       108.3       108.3       108.2       108.2       108.2    
  10    109.2       109.3       109.3       109.3       109.2       109.1       108.9       108.8       108.6       108.3    
        108.1       108.1       108.2       108.1       108.1       108.1       108.2    
  11    109.3       109.3       109.3       109.3       109.2       109.0       108.9       108.7       108.5       108.4    
        108.2       108.1       108.1       108.1       108.1       108.1       108.2    
  12    109.3       109.3       109.3       109.3       109.2       109.0       108.8       108.7       108.5       108.3    
        108.2       108.1       108.1       108.1       108.1       108.1       108.2    
  13    109.3       109.3       109.3       109.3       109.1       108.9       108.8       108.6       108.5       108.3    
        108.1       108.1       108.1       108.1       108.1       108.1       108.2    
  14    109.3       109.3       109.3       109.2       109.1       108.9       108.7       108.6       108.4       108.2    
        108.1       108.1       108.1       108.1       108.1       108.1       108.1    
  15    109.3       109.3       109.3       109.2       109.0       108.9       108.7       108.5       108.4       108.2    
        108.1       108.1       108.1       108.1       108.1       108.1       108.1    
  16    109.3       109.3       109.3       109.1       109.0       108.8       108.6       108.5       108.3       108.2    
        108.1       108.1       108.1       108.1       108.1       108.1       108.1    
  17    109.3       109.3       109.3       109.1       108.9       108.8       108.6       108.4       108.3       108.1    
        108.1       108.1       108.1       108.1       108.1       108.1       108.1    
  18    109.3       109.3       109.2       109.0       108.9       108.7       108.6       108.4       108.2       108.1    
        108.1       108.1       108.1       108.1       108.1       108.1       108.1    
  19    109.3       109.3       109.2       109.0       108.8       108.7       108.5       108.4       108.2       108.1    
        108.1       108.1       108.1       108.1       108.1       108.1       108.1    
  20    109.3       109.3       109.1       109.0       108.8       108.6       108.5       108.3       108.1       108.1    
        108.1       108.1       108.1       108.1       108.1       108.1       108.1    
  21    109.3       109.2       109.1       108.9       108.8       108.6       108.4       108.3       108.1       108.1    
        108.1       108.1       108.1       108.1       108.1       108.1       108.1    
  22    109.3       109.2       109.0       108.9       108.7       108.5       108.4       108.2       108.1       108.1    
        108.1       108.1       108.1       108.1       108.1       108.1       108.1    



             MODEL LAYER BOTTOM EL. FOR LAYER   3
 READING ON UNIT   12 WITH FORMAT: (FREE)              

            1           2           3           4           5           6           7           8           9          10
           11          12          13          14          15          16          17
 ........................................................................................................................
   1    107.2       107.2       107.2       107.3       107.3       107.4       107.4       107.5       107.5       107.5    
        107.5       107.4       107.4       107.3       107.2       107.1       107.0    
   2    107.2       107.2       107.2       107.2       107.3       107.4       107.4       107.5       107.5       107.5    
        107.4       107.3       107.3       107.2       107.1       107.0       106.9    
   3    107.2       107.2       107.2       107.2       107.3       107.3       107.4       107.5       107.5       107.4    
        107.4       107.3       107.2       107.1       107.0       106.9       106.8    
   4    107.2       107.2       107.2       107.2       107.3       107.3       107.3       107.3       107.2       107.2    
        107.3       107.2       107.1       107.0       106.9       106.8       106.7    
   5    107.2       107.2       107.2       107.1       107.1       107.1       107.1       107.0       106.9       106.9    
        106.8       107.1       107.0       106.9       106.8       106.7       106.6    
   6    107.3       107.3       107.3       107.1       106.9       106.9       106.8       106.7       106.7       106.6    
        106.6       106.5       106.9       106.8       106.8       106.7       106.6    
   7    107.3       107.3       107.3       107.3       107.1       106.8       106.6       106.5       106.4       106.4    
        106.3       106.2       106.2       106.8       106.7       106.6       106.5    
   8    107.3       107.4       107.4       107.4       107.3       107.0       106.7       106.4       106.3       106.2    
        106.1       106.0       106.0       105.9       106.6       106.5       106.4    
   9    107.4       107.4       107.5       107.5       107.4       107.2       106.9       106.6       106.2       106.1    
        106.0       105.9       105.8       105.9       106.1       106.4       106.3    
  10    107.5       107.5       107.5       107.5       107.4       107.1       106.9       106.6       106.4       106.1    
        105.8       105.7       105.8       105.9       106.1       106.2       106.3    
  11    107.5       107.5       107.5       107.5       107.3       107.1       106.8       106.6       106.3       106.1    
        105.8       105.7       105.8       105.9       106.1       106.2       106.3    
  12    107.5       107.5       107.5       107.5       107.2       107.0       106.7       106.5       106.3       106.0    
        105.8       105.6       105.8       105.9       106.0       106.2       106.3    
  13    107.5       107.5       107.5       107.4       107.2       106.9       106.7       106.4       106.2       106.0    
        105.7       105.6       105.7       105.9       106.0       106.1       106.3    
  14    107.5       107.5       107.5       107.3       107.1       106.9       106.6       106.4       106.1       105.9    
        105.6       105.6       105.7       105.8       106.0       106.1       106.3    
  15    107.5       107.5       107.5       107.3       107.0       106.8       106.5       106.3       106.1       105.8    
        105.6       105.6       105.7       105.8       105.9       106.1       106.2    
  16    107.5       107.5       107.4       107.2       107.0       106.7       106.5       106.2       106.0       105.8    
        105.6       105.6       105.6       105.8       105.9       106.0       106.2    
  17    107.5       107.5       107.4       107.1       106.9       106.7       106.4       106.2       105.9       105.7    
        105.6       105.6       105.6       105.7       105.9       106.0       106.2    
  18    107.5       107.5       107.3       107.1       106.8       106.6       106.3       106.1       105.9       105.6    
        105.6       105.6       105.6       105.7       105.8       106.0       106.1    
  19    107.5       107.5       107.2       107.0       106.8       106.5       106.3       106.0       105.8       105.6    
        105.6       105.6       105.6       105.7       105.8       105.9       106.1    
  20    107.5       107.4       107.2       106.9       106.7       106.5       106.2       106.0       105.7       105.6    
        105.6       105.6       105.6       105.6       105.8       105.9       106.1    
  21    107.5       107.4       107.1       106.9       106.6       106.4       106.1       105.9       105.7       105.6    
        105.6       105.6       105.6       105.6       105.7       105.9       106.0    
  22    107.5       107.3       107.0       106.8       106.6       106.3       106.1       105.8       105.6       105.6    
        105.6       105.6       105.6       105.6       105.7       105.8       106.0    



             MODEL LAYER BOTTOM EL. FOR LAYER   4
 READING ON UNIT   12 WITH FORMAT: (FREE)              

            1           2           3           4           5           6           7           8           9          10
           11          12          13          14          15          16          17
 ........................................................................................................................
   1    105.9       105.9       105.9       106.0       106.0       106.0       106.0       106.0       106.0       106.0    
        106.0       105.9       105.7       105.6       105.4       105.2       105.0    
   2    105.9       105.9       105.9       106.0       106.0       106.0       106.0       106.0       106.0       106.0    
        105.9       105.7       105.5       105.4       105.2       105.1       104.9    
   3    105.9       105.9       105.9       105.9       106.0       106.0       106.0       106.0       106.0       105.9    
        105.7       105.6       105.4       105.2       105.1       104.9       104.7    
   4    105.9       105.9       105.9       105.9       106.0       106.0       105.9       105.9       105.8       105.7    
        105.6       105.4       105.3       105.1       104.9       104.8       104.6    
   5    105.9       105.9       105.9       105.9       105.8       105.8       105.7       105.6       105.5       105.4    
        105.3       105.3       105.1       105.0       104.8       104.6       104.4    
   6    105.8       105.8       105.8       105.7       105.7       105.6       105.5       105.4       105.3       105.2    
        105.1       105.0       105.0       104.8       104.6       104.5       104.3    
   7    105.8       105.6       105.3       104.9       104.9       105.1       105.3       105.2       105.1       105.0    
        104.9       104.8       104.7       104.7       104.5       104.3       104.2    
   8    105.3       104.9       104.5       104.1       104.0       104.3       104.6       105.0       104.9       104.8    
        104.7       104.6       104.5       104.4       104.4       104.2       104.0    
   9    104.5       104.1       103.7       103.3       103.3       103.5       103.8       104.2       104.5       104.6    
        104.5       104.4       104.3       104.2       104.1       104.1       103.9    
  10    103.8       103.4       103.3       103.3       103.3       103.4       103.6       103.7       103.8       104.1    
        104.4       104.2       104.1       104.1       104.0       103.9       103.9    
  11    103.3       103.3       103.3       103.3       103.4       103.5       103.6       103.7       103.8       103.9    
        104.0       104.1       104.1       104.0       104.0       103.9       103.9    
  12    103.3       103.3       103.3       103.3       103.4       103.5       103.6       103.7       103.8       104.0    
        104.1       104.1       104.1       104.0       104.0       103.9       103.9    
  13    103.3       103.3       103.3       103.3       103.4       103.5       103.6       103.8       103.9       104.0    
        104.1       104.1       104.1       104.1       104.0       104.0       103.9    
  14    103.3       103.3       103.3       103.3       103.4       103.6       103.7       103.8       103.9       104.0    
        104.1       104.1       104.1       104.1       104.0       104.0       103.9    
  15    103.3       103.3       103.3       103.4       103.5       103.6       103.7       103.8       103.9       104.0    
        104.1       104.1       104.1       104.1       104.0       104.0       103.9    
  16    103.3       103.3       103.3       103.4       103.5       103.6       103.7       103.9       104.0       104.1    
        104.1       104.1       104.1       104.1       104.0       104.0       103.9    
  17    103.3       103.3       103.3       103.4       103.5       103.7       103.8       103.9       104.0       104.1    
        104.1       104.1       104.1       104.1       104.1       104.0       103.9    
  18    103.3       103.3       103.3       103.5       103.6       103.7       103.8       103.9       104.0       104.1    
        104.1       104.1       104.1       104.1       104.1       104.0       104.0    
  19    103.3       103.3       103.4       103.5       103.6       103.7       103.8       103.9       104.1       104.1    
        104.1       104.1       104.1       104.1       104.1       104.0       104.0    
  20    103.3       103.3       103.4       103.5       103.6       103.7       103.9       104.0       104.1       104.1    
        104.1       104.1       104.1       104.1       104.1       104.0       104.0    
  21    103.3       103.3       103.4       103.6       103.7       103.8       103.9       104.0       104.1       104.1    
        104.1       104.1       104.1       104.1       104.1       104.1       104.0    
  22    103.3       103.4       103.5       103.6       103.7       103.8       103.9       104.0       104.1       104.1    
        104.1       104.1       104.1       104.1       104.1       104.1       104.0    



             MODEL LAYER BOTTOM EL. FOR LAYER   5
 READING ON UNIT   12 WITH FORMAT: (FREE)              

            1           2           3           4           5           6           7           8           9          10
           11          12          13          14          15          16          17
 ........................................................................................................................
   1    105.3       105.3       105.3       105.4       105.4       105.4       105.4       105.4       105.4       105.4    
        105.4       105.3       105.1       104.9       104.7       104.5       104.3    
   2    105.3       105.3       105.3       105.3       105.4       105.4       105.4       105.4       105.4       105.4    
        105.2       105.0       104.9       104.7       104.5       104.3       104.1    
   3    105.3       105.3       105.3       105.3       105.4       105.4       105.4       105.4       105.4       105.3    
        105.1       104.9       104.7       104.5       104.3       104.2       103.9    
   4    105.3       105.3       105.3       105.3       105.4       105.4       105.3       105.3       105.1       105.0    
        104.9       104.7       104.5       104.4       104.2       104.0       103.8    
   5    105.4       105.4       105.4       105.3       105.2       105.2       105.1       105.0       104.9       104.7    
        104.6       104.6       104.4       104.2       104.0       103.8       103.6    
   6    105.6       105.6       105.6       105.4       105.1       105.0       104.9       104.7       104.6       104.5    
        104.3       104.2       104.2       104.0       103.9       103.7       103.4    
   7    105.6       105.5       105.0       104.5       104.3       104.4       104.5       104.4       104.3       104.2    
        104.1       104.0       103.8       103.9       103.7       103.5       103.3    
   8    105.0       104.5       104.0       103.4       103.1       103.4       103.6       103.9       103.8       103.7    
        103.6       103.5       103.4       103.4       103.5       103.3       103.1    
   9    104.0       103.5       103.0       102.5       102.3       102.4       102.7       102.9       103.2       103.3    
        103.2       103.1       103.0       103.0       103.1       103.2       103.0    
  10    103.0       102.5       102.3       102.3       102.3       102.3       102.3       102.3       102.3       102.5    
        102.7       102.6       102.6       102.7       102.7       102.9       103.0    
  11    102.3       102.3       102.3       102.3       102.3       102.3       102.3       102.3       102.3       102.3    
        102.3       102.3       102.4       102.6       102.7       102.8       103.0    
  12    102.3       102.3       102.3       102.3       102.3       102.3       102.3       102.3       102.3       102.3    
        102.3       102.3       102.4       102.5       102.7       102.8       103.0    
  13    102.3       102.3       102.3       102.3       102.3       102.3       102.3       102.3       102.3       102.3    
        102.3       102.3       102.4       102.5       102.6       102.8       102.9    
  14    102.3       102.3       102.3       102.3       102.3       102.3       102.3       102.3       102.3       102.3    
        102.3       102.3       102.3       102.5       102.6       102.7       102.9    
  15    102.3       102.3       102.3       102.3       102.3       102.3       102.3       102.3       102.3       102.3    
        102.3       102.3       102.3       102.4       102.6       102.7       102.9    
  16    102.3       102.3       102.3       102.3       102.3       102.3       102.3       102.3       102.3       102.3    
        102.3       102.3       102.3       102.4       102.5       102.7       102.8    
  17    102.3       102.3       102.3       102.3       102.3       102.3       102.3       102.3       102.3       102.3    
        102.3       102.3       102.3       102.4       102.5       102.6       102.8    
  18    102.3       102.3       102.3       102.3       102.3       102.3       102.3       102.3       102.3       102.3    
        102.3       102.3       102.3       102.3       102.5       102.6       102.8    
  19    102.3       102.3       102.3       102.3       102.3       102.3       102.3       102.3       102.3       102.3    
        102.3       102.3       102.3       102.3       102.4       102.6       102.7    
  20    102.3       102.3       102.3       102.3       102.3       102.3       102.3       102.3       102.3       102.3    
        102.3       102.3       102.3       102.3       102.4       102.5       102.7    
  21    102.3       102.3       102.3       102.3       102.3       102.3       102.3       102.3       102.3       102.3    
        102.3       102.3       102.3       102.3       102.4       102.5       102.7    
  22    102.3       102.3       102.3       102.3       102.3       102.3       102.3       102.3       102.3       102.3    
        102.3       102.3       102.3       102.3       102.3       102.5       102.6    


 STRESS PERIOD     LENGTH       TIME STEPS     MULTIPLIER FOR DELT    SS FLAG
 ----------------------------------------------------------------------------
        1         86400.00          1                    1.000         SS
        2         86400.00          1                    1.000         TR
        3         86400.00          1                    1.000         TR
        4         86400.00          1                    1.000         TR
        5         345600.0          4                    1.000         TR
        6         86400.00          1                    1.000         TR
        7         86400.00          1                    1.000         TR
        8         86400.00          1                    1.000         TR
        9         259200.0          3                    1.000         TR
       10         86400.00          1                    1.000         TR
       11         86400.00          1                    1.000         TR
       12         86400.00          1                    1.000         TR
       13         86400.00          1                    1.000         TR
       14         259200.0          3                    1.000         TR
       15         86400.00          1                    1.000         TR
       16         86400.00          1                    1.000         TR
       17         86400.00          1                    1.000         TR
       18         86400.00          1                    1.000         TR
       19         259200.0          3                    1.000         TR
       20         86400.00          1                    1.000         TR
       21         86400.00          1                    1.000         TR
       22         86400.00          1                    1.000         TR
       23         345600.0          4                    1.000         TR
       24         86400.00          1                    1.000         TR
       25         86400.00          1                    1.000         TR
       26         86400.00          1                    1.000         TR
       27         86400.00          1                    1.000         TR
       28         259200.0          3                    1.000         TR
       29         86400.00          1                    1.000         TR
       30         86400.00          1                    1.000         TR
       31         86400.00          1                    1.000         TR
       32         86400.00          1                    1.000         TR
       33         259200.0          3                    1.000         TR
       34         86400.00          1                    1.000         TR
       35         86400.00          1                    1.000         TR
       36         86400.00          1                    1.000         TR
       37         86400.00          1                    1.000         TR
       38         86400.00          1                    1.000         TR
       39         172800.0          2                    1.000         TR
       40         86400.00          1                    1.000         TR
       41         86400.00          1                    1.000         TR
       42         86400.00          1                    1.000         TR
       43         86400.00          1                    1.000         TR
       44         86400.00          1                    1.000         TR
       45         172800.0          2                    1.000         TR
       46         86400.00          1                    1.000         TR
       47         86400.00          1                    1.000         TR
       48         86400.00          1                    1.000         TR
       49         86400.00          1                    1.000         TR
       50         86400.00          1                    1.000         TR
       51         86400.00          1                    1.000         TR
       52         86400.00          1                    1.000         TR
       53         86400.00          1                    1.000         TR
       54         86400.00          1                    1.000         TR
       55         86400.00          1                    1.000         TR
       56         86400.00          1                    1.000         TR
       57         86400.00          1                    1.000         TR
       58         86400.00          1                    1.000         TR
       59         86400.00          1                    1.000         TR
       60         86400.00          1                    1.000         TR
       61         86400.00          1                    1.000         TR
       62         86400.00          1                    1.000         TR
       63         345600.0          4                    1.000         TR
       64         86400.00          1                    1.000         TR
       65         86400.00          1                    1.000         TR
       66         86400.00          1                    1.000         TR
       67         86400.00          1                    1.000         TR
       68         86400.00          1                    1.000         TR
       69         172800.0          2                    1.000         TR
       70         86400.00          1                    1.000         TR
       71         86400.00          1                    1.000         TR
       72         86400.00          1                    1.000         TR
       73         86400.00          1                    1.000         TR
       74         345600.0          4                    1.000         TR
       75         86400.00          1                    1.000         TR
       76         86400.00          1                    1.000         TR
       77         86400.00          1                    1.000         TR
       78         259200.0          3                    1.000         TR
       79         86400.00          1                    1.000         TR
       80         86400.00          1                    1.000         TR
       81         86400.00          1                    1.000         TR
       82         345600.0          4                    1.000         TR
       83         86400.00          1                    1.000         TR
       84         86400.00          1                    1.000         TR
       85         86400.00          1                    1.000         TR
       86         86400.00          1                    1.000         TR
       87         259200.0          3                    1.000         TR
       88         86400.00          1                    1.000         TR
       89         86400.00          1                    1.000         TR
       90         86400.00          1                    1.000         TR
       91         345600.0          4                    1.000         TR
       92         86400.00          1                    1.000         TR
       93         86400.00          1                    1.000         TR
       94         86400.00          1                    1.000         TR
       95         86400.00          1                    1.000         TR
       96         259200.0          3                    1.000         TR
       97         86400.00          1                    1.000         TR
       98         86400.00          1                    1.000         TR
       99         86400.00          1                    1.000         TR
      100         86400.00          1                    1.000         TR
      101         345600.0          4                    1.000         TR
      102         86400.00          1                    1.000         TR
      103         86400.00          1                    1.000         TR
      104         86400.00          1                    1.000         TR
      105         259200.0          3                    1.000         TR
      106         86400.00          1                    1.000         TR
      107         86400.00          1                    1.000         TR
      108         86400.00          1                    1.000         TR
      109         172800.0          2                    1.000         TR
      110         172800.0          2                    1.000         TR
      111         86400.00          1                    1.000         TR
      112         86400.00          1                    1.000         TR
      113         86400.00          1                    1.000         TR
      114         86400.00          1                    1.000         TR
      115         259200.0          3                    1.000         TR
      116         86400.00          1                    1.000         TR
      117         86400.00          1                    1.000         TR
      118         86400.00          1                    1.000         TR
      119         86400.00          1                    1.000         TR
      120         259200.0          3                    1.000         TR
      121         86400.00          1                    1.000         TR
      122         172800.0          2                    1.000         TR
      123         86400.00          1                    1.000         TR
      124         259200.0          3                    1.000         TR
      125         86400.00          1                    1.000         TR
      126         86400.00          1                    1.000         TR
      127         86400.00          1                    1.000         TR
      128         86400.00          1                    1.000         TR
      129         259200.0          3                    1.000         TR
      130         86400.00          1                    1.000         TR
      131         86400.00          1                    1.000         TR
      132         86400.00          1                    1.000         TR

 COMBINED STEADY-STATE AND TRANSIENT SIMULATION




 # Basic Package file created on 07.07.2016 by ModelMuse version 3.7.1.0.        
 THE FREE FORMAT OPTION HAS BEEN SELECTED
 THE PRINTTIME OPTION HAS BEEN SELECTED
 CALCULATE FLOW BETWEEN ADJACENT CONSTANT-HEAD CELLS



                     BOUNDARY ARRAY FOR LAYER   1
 READING ON UNIT   13 WITH FORMAT: (FREE)              

          1     2     3     4     5     6     7     8     9    10    11    12    13    14    15    16    17
 ..........................................................................................................
   1      0     0     0     0     0     0     0     0     0     0     0     0     0     0     0     0     0
   2      1     1     1     1     1     1     1     1     1     1     1     1     1     1     1     1     1
   3      1     1     1     1     1     1     1     1     1     1     1     1     1     1     1     1     1
   4      1     1     1     1     1     1     1     1     1     1     1     1     1     1     1     1     1
   5      1     1     1     1     1     1     1     1     1     1     1     1     1     1     1     1     1
   6      1     1     1     1     1     1     1     1     1     1     1     1     1     1     1     1     1
   7      1     1     1     1     1     1     1     1     1     1     1     1     1     1     1     1     1
   8      1     1     1     1     1     1     1     1     1     1     1     1     1     1     1     1     1
   9      1     1     1     1     1     1     1     1     1     1     1     1     1     1     1     1     1
  10      1     1     1     1     1     1     1     1     1     1     1     1     1     1     1     1     1
  11      1     1     1     1     1     1     1     1     1     1     1     1     1     1     1     1     1
  12      1     1     1     1     1     1     1     1     1     1     1     1     1     1     1     1     1
  13      1     1     1     1     1     1     1     1     1     1     1     1     1     1     1     1     1
  14      1     1     1     1     1     1     1     1     1     1     1     1     1     1     1     1     1
  15      1     1     1     1     1     1     1     1     1     1     1     1     1     1     1     1     1
  16      1     1     1     1     1     1     1     1     1     1     1     1     1     1     1     1     1
  17      1     1     1     1     1     1     1     1     1     1     1     1     1     1     1     1     1
  18      1     1     1     1     1     1     1     1     1     1     1     1     1     1     1     0     0
  19      1     1     1     1     1     1     1     1     1     1     1     1     1     1     0     0     0
  20      1     1     1     1     1     1     1     1     1     1     1     0     0     0     0     0     0
  21      1     1     1     1     1     1     0     0     0     0     0     0     0     0     0     0     0
  22      0     0     0     0     0     0     0     0     0     0     0     0     0     0     0     0     0



                     BOUNDARY ARRAY FOR LAYER   2
 READING ON UNIT   13 WITH FORMAT: (FREE)              

          1     2     3     4     5     6     7     8     9    10    11    12    13    14    15    16    17
 ..........................................................................................................
   1      0     0     0     0     0     0     0     0     0     0     0     0     0     0     0     0     0
   2      1     1     1     1     1     1     1     1     1     1     1     1     1     1     1     1     1
   3      1     1     1     1     1     1     1     1     1     1     1     1     1     1     1     1     1
   4      1     1     1     1     1     1     1     1     1     1     1     1     1     1     1     1     1
   5      1     1     1     1     1     1     1     1     1     1     1     1     1     1     1     1     1
   6      1     1     1     1     1     1     1     1     1     1     1     1     1     1     1     1     1
   7      1     1     1     1     1     1     1     1     1     1     1     1     1     1     1     1     1
   8      1     1     1     1     1     1     1     1     1     1     1     1     1     1     1     1     1
   9      1     1     1     1     1     1     1     1     1     1     1     1     1     1     1     1     1
  10      1     1     1     1     1     1     1     1     1     1     1     1     1     1     1     1     1
  11      1     1     1     1     1     1     1     1     1     1     1     1     1     1     1     1     1
  12      1     1     1     1     1     1     1     1     1     1     1     1     1     1     1     1     1
  13      1     1     1     1     1     1     1     1     1     1     1     1     1     1     1     1     1
  14      1     1     1     1     1     1     1     1     1     1     1     1     1     1     1     1     1
  15      1     1     1     1     1     1     1     1     1     1     1     1     1     1     1     1     1
  16      1     1     1     1     1     1     1     1     1     1     1     1     1     1     1     1     1
  17      1     1     1     1     1     1     1     1     1     1     1     1     1     1     1     1     1
  18      1     1     1     1     1     1     1     1     1     1     1     1     1     1     1     0     0
  19      1     1     1     1     1     1     1     1     1     1     1     1     1     1     0     0     0
  20      1     1     1     1     1     1     1     1     1     1     1     0     0     0     0     0     0
  21      1     1     1     1     1     1     0     0     0     0     0     0     0     0     0     0     0
  22      0     0     0     0     0     0     0     0     0     0     0     0     0     0     0     0     0



                     BOUNDARY ARRAY FOR LAYER   3
 READING ON UNIT   13 WITH FORMAT: (FREE)              

          1     2     3     4     5     6     7     8     9    10    11    12    13    14    15    16    17
 ..........................................................................................................
   1      0     0     0     0     0     0     0     0     0     0     0     0     0     0     0     0     0
   2      1     1     1     1     1     1     1     1     1     1     1     1     1     1     1     1     1
   3      1     1     1     1     1     1     1     1     1     1     1     1     1     1     1     1     1
   4      1     1     1     1     1     1     1     1     1     1     1     1     1     1     1     1     1
   5      1     1     1     1     1     1     1     1     1     1     1     1     1     1     1     1     1
   6      1     1     1     1     1     1     1     1     1     1     1     1     1     1     1     1     1
   7      1     1     1     1     1     1     1     1     1     1     1     1     1     1     1     1     1
   8      1     1     1     1     1     1     1     1     1     1     1     1     1     1     1     1     1
   9      1     1     1     1     1     1     1     1     1     1     1     1     1     1     1     1     1
  10      1     1     1     1     1     1     1     1     1     1     1     1     1     1     1     1     1
  11      1     1     1     1     1     1     1     1     1     1     1     1     1     1     1     1     1
  12      1     1     1     1     1     1     1     1     1     1     1     1     1     1     1     1     1
  13      1     1     1     1     1     1     1     1     1     1     1     1     1     1     1     1     1
  14      1     1     1     1     1     1     1     1     1     1     1     1     1     1     1     1     1
  15      1     1     1     1     1     1     1     1     1     1     1     1     1     1     1     1     1
  16      1     1     1     1     1     1     1     1     1     1     1     1     1     1     1     1     1
  17      1     1     1     1     1     1     1     1     1     1     1     1     1     1     1     1     1
  18      1     1     1     1     1     1     1     1     1     1     1     1     1     1     1     0     0
  19      1     1     1     1     1     1     1     1     1     1     1     1     1     1     0     0     0
  20      1     1     1     1     1     1     1     1     1     1     1     0     0     0     0     0     0
  21      1     1     1     1     1     1     0     0     0     0     0     0     0     0     0     0     0
  22      0     0     0     0     0     0     0     0     0     0     0     0     0     0     0     0     0



                     BOUNDARY ARRAY FOR LAYER   4
 READING ON UNIT   13 WITH FORMAT: (FREE)              

          1     2     3     4     5     6     7     8     9    10    11    12    13    14    15    16    17
 ..........................................................................................................
   1      1     1     1     1     1     1     1     1     1     1     1     1     1     1     1     1     1
   2      1     1     1     1     1     1     1     1     1     1     1     1     1     1     1     1     1
   3      1     1     1     1     1     1     1     1     1     1     1     1     1     1     1     1     1
   4      1     1     1     1     1     1     1     1     1     1     1     1     1     1     1     1     1
   5      1     1     1     1     1     1     1     1     1     1     1     1     1     1     1     1     1
   6      1     1     1     1     1     1     1     1     1     1     1     1     1     1     1     1     1
   7      1     1     1     1     1     1     1     1     1     1     1     1     1     1     1     1     1
   8      1     1     1     1     1     1     1     1     1     1     1     1     1     1     1     1     1
   9      1     1     1     1     1     1     1     1     1     1     1     1     1     1     1     1     1
  10      1     1     1     1     1     1     1     1     1     1     1     1     1     1     1     1     1
  11      1     1     1     1     1     1     1     1     1     1     1     1     1     1     1     1     1
  12      1     1     1     1     1     1     1     1     1     1     1     1     1     1     1     1     1
  13      1     1     1     1     1     1     1     1     1     1     1     1     1     1     1     1     1
  14      1     1     1     1     1     1     1     1     1     1     1     1     1     1     1     1     1
  15      1     1     1     1     1     1     1     1     1     1     1     1     1     1     1     1     1
  16      1     1     1     1     1     1     1     1     1     1     1     1     1     1     1     1     1
  17      1     1     1     1     1     1     1     1     1     1     1     1     1     1     1     1     1
  18      1     1     1     1     1     1     1     1     1     1     1     1     1     1     1     1     1
  19      1     1     1     1     1     1     1     1     1     1     1     1     1     1     1     1     0
  20      1     1     1     1     1     1     1     1     1     1     1     1     1     1     1     0     0
  21      1     1     1     1     1     1     1     1     1     1     1     0     0     0     0     0     0
  22      1     1     1     1     1     0     0     0     0     0     0     0     0     0     0     0     0



                     BOUNDARY ARRAY FOR LAYER   5
 READING ON UNIT   13 WITH FORMAT: (FREE)              

          1     2     3     4     5     6     7     8     9    10    11    12    13    14    15    16    17
 ..........................................................................................................
   1      1     1     1     1     1     1     1     1     1     1     1     1     1     1     1     1     1
   2      1     1     1     1     1     1     1     1     1     1     1     1     1     1     1     1     1
   3      1     1     1     1     1     1     1     1     1     1     1     1     1     1     1     1     1
   4      1     1     1     1     1     1     1     1     1     1     1     1     1     1     1     1     1
   5      1     1     1     1     1     1     1     1     1     1     1     1     1     1     1     1     1
   6      1     1     1     1     1     1     1     1     1     1     1     1     1     1     1     1     1
   7      1     1     1     1     1     1     1     1     1     1     1     1     1     1     1     1     1
   8      1     1     1     1     1     1     1     1     1     1     1     1     1     1     1     1     1
   9      1     1     1     1     1     1     1     1     1     1     1     1     1     1     1     1     1
  10      1     1     1     1     1     1     1     1     1     1     1     1     1     1     1     1     1
  11      1     1     1     1     1     1     1     1     1     1     1     1     1     1     1     1     1
  12      1     1     1     1     1     1     1     1     1     1     1     1     1     1     1     1     1
  13      1     1     1     1     1     1     1     1     1     1     1     1     1     1     1     1     1
  14      1     1     1     1     1     1     1     1     1     1     1     1     1     1     1     1     1
  15      1     1     1     1     1     1     1     1     1     1     1     1     1     1     1     1     1
  16      1     1     1     1     1     1     1     1     1     1     1     1     1     1     1     1     1
  17      1     1     1     1     1     1     1     1     1     1     1     1     1     1     1     1     1
  18      1     1     1     1     1     1     1     1     1     1     1     1     1     1     1     1     1
  19      1     1     1     1     1     1     1     1     1     1     1     1     1     1     1     1     0
  20      1     1     1     1     1     1     1     1     1     1     1     1     1     1     1     0     0
  21      1     1     1     1     1     1     1     1     1     1     1     0     0     0     0     0     0
  22      1     1     1     1     1     0     0     0     0     0     0     0     0     0     0     0     0

 AQUIFER HEAD WILL BE SET TO -2.00000E+20 AT ALL NO-FLOW NODES (IBOUND=0).



                       INITIAL HEAD FOR LAYER   1
 READING ON UNIT   13 WITH FORMAT: (FREE)              

            1           2           3           4           5           6           7           8           9          10
           11          12          13          14          15          16          17
 ........................................................................................................................
   1    110.7       110.7       110.7       110.7       110.7       110.8       110.8       110.8       110.8       110.8    
        110.8       110.7       110.7       110.7       110.7       110.7       110.7    
   2    110.7       110.7       110.7       110.7       110.7       110.8       110.8       110.8       110.8       110.8    
        110.8       110.7       110.7       110.7       110.7       110.7       110.7    
   3    110.7       110.7       110.7       110.7       110.7       110.7       110.8       110.8       110.8       110.8    
        110.7       110.7       110.7       110.7       110.7       110.7       110.7    
   4    110.7       110.7       110.7       110.7       110.7       110.7       110.7       110.7       110.7       110.7    
        110.7       110.7       110.7       110.7       110.7       110.7       110.7    
   5    110.7       110.7       110.7       110.7       110.7       110.7       110.7       110.7       110.7       110.7    
        110.7       110.7       110.7       110.7       110.7       110.7       110.7    
   6    110.7       110.7       110.7       110.7       110.7       110.7       110.7       110.7       110.7       110.7    
        110.7       110.7       110.7       110.7       110.7       110.7       110.7    
   7    110.7       110.7       110.7       110.7       110.7       110.7       110.7       110.7       110.7       110.7    
        110.7       110.7       110.7       110.7       110.7       110.7       110.7    
   8    110.7       110.7       110.7       110.7       110.7       110.7       110.7       110.7       110.7       110.7    
        110.7       110.7       110.7       110.7       110.7       110.7       110.7    
   9    110.7       110.7       110.7       110.7       110.7       110.7       110.7       110.7       110.7       110.7    
        110.7       110.7       110.7       110.7       110.7       110.7       110.7    
  10    110.7       110.7       110.7       110.7       110.7       110.7       110.7       110.7       110.7       110.7    
        110.7       110.7       110.7       110.7       110.7       110.7       110.7    
  11    110.7       110.7       110.7       110.7       110.7       110.7       110.7       110.7       110.7       110.7    
        110.7       110.7       110.7       110.7       110.7       110.7       110.7    
  12    110.7       110.7       110.7       110.7       110.7       110.7       110.7       110.7       110.7       110.7    
        110.7       110.7       110.7       110.7       110.7       110.7       110.7    
  13    110.7       110.7       110.7       110.7       110.7       110.7       110.7       110.7       110.7       110.7    
        110.7       110.7       110.7       110.7       110.7       110.7       110.7    
  14    110.7       110.7       110.7       110.7       110.7       110.7       110.7       110.7       110.7       110.7    
        110.7       110.7       110.7       110.7       110.7       110.7       110.7    
  15    110.7       110.7       110.7       110.7       110.7       110.7       110.7       110.7       110.7       110.7    
        110.7       110.7       110.7       110.7       110.7       110.7       110.7    
  16    110.7       110.7       110.7       110.7       110.7       110.7       110.7       110.7       110.7       110.7    
        110.7       110.7       110.7       110.7       110.7       110.7       110.7    
  17    110.7       110.7       110.7       110.7       110.7       110.7       110.7       110.7       110.7       110.7    
        110.7       110.7       110.7       110.7       110.7       110.7       110.7    
  18    110.7       110.7       110.7       110.7       110.7       110.7       110.7       110.7       110.7       110.7    
        110.7       110.7       110.7       110.7       110.7       110.7       110.7    
  19    110.7       110.7       110.7       110.7       110.7       110.7       110.7       110.7       110.7       110.7    
        110.7       110.7       110.7       110.7       110.7       110.7       110.7    
  20    110.7       110.7       110.7       110.7       110.7       110.7       110.7       110.7       110.7       110.7    
        110.7       110.7       110.7       110.7       110.7       110.7       110.7    
  21    110.7       110.7       110.7       110.7       110.7       110.7       110.7       110.7       110.7       110.7    
        110.7       110.7       110.7       110.7       110.7       110.7       110.7    
  22    110.7       110.7       110.7       110.7       110.7       110.7       110.7       110.7       110.7       110.7    
        110.7       110.7       110.7       110.7       110.7       110.7       110.7    



                       INITIAL HEAD FOR LAYER   2
 READING ON UNIT   13 WITH FORMAT: (FREE)              

            1           2           3           4           5           6           7           8           9          10
           11          12          13          14          15          16          17
 ........................................................................................................................
   1    110.7       110.7       110.7       110.7       110.7       110.8       110.8       110.8       110.8       110.8    
        110.8       110.7       110.7       110.7       110.7       110.7       110.7    
   2    110.7       110.7       110.7       110.7       110.7       110.8       110.8       110.8       110.8       110.8    
        110.8       110.7       110.7       110.7       110.7       110.7       110.7    
   3    110.7       110.7       110.7       110.7       110.7       110.7       110.8       110.8       110.8       110.8    
        110.7       110.7       110.7       110.7       110.7       110.7       110.7    
   4    110.7       110.7       110.7       110.7       110.7       110.7       110.7       110.7       110.7       110.7    
        110.7       110.7       110.7       110.7       110.7       110.7       110.7    
   5    110.7       110.7       110.7       110.7       110.7       110.7       110.7       110.7       110.7       110.7    
        110.7       110.7       110.7       110.7       110.7       110.7       110.7    
   6    110.7       110.7       110.7       110.7       110.7       110.7       110.7       110.7       110.7       110.7    
        110.7       110.7       110.7       110.7       110.7       110.7       110.7    
   7    110.7       110.7       110.7       110.7       110.7       110.7       110.7       110.7       110.7       110.7    
        110.7       110.7       110.7       110.7       110.7       110.7       110.7    
   8    110.7       110.7       110.7       110.7       110.7       110.7       110.7       110.7       110.7       110.7    
        110.7       110.7       110.7       110.7       110.7       110.7       110.7    
   9    110.7       110.7       110.7       110.7       110.7       110.7       110.7       110.7       110.7       110.7    
        110.7       110.7       110.7       110.7       110.7       110.7       110.7    
  10    110.7       110.7       110.7       110.7       110.7       110.7       110.7       110.7       110.7       110.7    
        110.7       110.7       110.7       110.7       110.7       110.7       110.7    
  11    110.7       110.7       110.7       110.7       110.7       110.7       110.7       110.7       110.7       110.7    
        110.7       110.7       110.7       110.7       110.7       110.7       110.7    
  12    110.7       110.7       110.7       110.7       110.7       110.7       110.7       110.7       110.7       110.7    
        110.7       110.7       110.7       110.7       110.7       110.7       110.7    
  13    110.7       110.7       110.7       110.7       110.7       110.7       110.7       110.7       110.7       110.7    
        110.7       110.7       110.7       110.7       110.7       110.7       110.7    
  14    110.7       110.7       110.7       110.7       110.7       110.7       110.7       110.7       110.7       110.7    
        110.7       110.7       110.7       110.7       110.7       110.7       110.7    
  15    110.7       110.7       110.7       110.7       110.7       110.7       110.7       110.7       110.7       110.7    
        110.7       110.7       110.7       110.7       110.7       110.7       110.7    
  16    110.7       110.7       110.7       110.7       110.7       110.7       110.7       110.7       110.7       110.7    
        110.7       110.7       110.7       110.7       110.7       110.7       110.7    
  17    110.7       110.7       110.7       110.7       110.7       110.7       110.7       110.7       110.7       110.7    
        110.7       110.7       110.7       110.7       110.7       110.7       110.7    
  18    110.7       110.7       110.7       110.7       110.7       110.7       110.7       110.7       110.7       110.7    
        110.7       110.7       110.7       110.7       110.7       110.7       110.7    
  19    110.7       110.7       110.7       110.7       110.7       110.7       110.7       110.7       110.7       110.7    
        110.7       110.7       110.7       110.7       110.7       110.7       110.7    
  20    110.7       110.7       110.7       110.7       110.7       110.7       110.7       110.7       110.7       110.7    
        110.7       110.7       110.7       110.7       110.7       110.7       110.7    
  21    110.7       110.7       110.7       110.7       110.7       110.7       110.7       110.7       110.7       110.7    
        110.7       110.7       110.7       110.7       110.7       110.7       110.7    
  22    110.7       110.7       110.7       110.7       110.7       110.7       110.7       110.7       110.7       110.7    
        110.7       110.7       110.7       110.7       110.7       110.7       110.7    



                       INITIAL HEAD FOR LAYER   3
 READING ON UNIT   13 WITH FORMAT: (FREE)              

            1           2           3           4           5           6           7           8           9          10
           11          12          13          14          15          16          17
 ........................................................................................................................
   1    110.7       110.7       110.7       110.7       110.7       110.8       110.8       110.8       110.8       110.8    
        110.8       110.7       110.7       110.7       110.7       110.7       110.7    
   2    110.7       110.7       110.7       110.7       110.7       110.8       110.8       110.8       110.8       110.8    
        110.8       110.7       110.7       110.7       110.7       110.7       110.7    
   3    110.7       110.7       110.7       110.7       110.7       110.7       110.8       110.8       110.8       110.8    
        110.7       110.7       110.7       110.7       110.7       110.7       110.7    
   4    110.7       110.7       110.7       110.7       110.7       110.7       110.7       110.7       110.7       110.7    
        110.7       110.7       110.7       110.7       110.7       110.7       110.7    
   5    110.7       110.7       110.7       110.7       110.7       110.7       110.7       110.7       110.7       110.7    
        110.7       110.7       110.7       110.7       110.7       110.7       110.7    
   6    110.7       110.7       110.7       110.7       110.7       110.7       110.7       110.7       110.7       110.7    
        110.7       110.7       110.7       110.7       110.7       110.7       110.7    
   7    110.7       110.7       110.7       110.7       110.7       110.7       110.7       110.7       110.7       110.7    
        110.7       110.7       110.7       110.7       110.7       110.7       110.7    
   8    110.7       110.7       110.7       110.7       110.7       110.7       110.7       110.7       110.7       110.7    
        110.7       110.7       110.7       110.7       110.7       110.7       110.7    
   9    110.7       110.7       110.7       110.7       110.7       110.7       110.7       110.7       110.7       110.7    
        110.7       110.7       110.7       110.7       110.7       110.7       110.7    
  10    110.7       110.7       110.7       110.7       110.7       110.7       110.7       110.7       110.7       110.7    
        110.7       110.7       110.7       110.7       110.7       110.7       110.7    
  11    110.7       110.7       110.7       110.7       110.7       110.7       110.7       110.7       110.7       110.7    
        110.7       110.7       110.7       110.7       110.7       110.7       110.7    
  12    110.7       110.7       110.7       110.7       110.7       110.7       110.7       110.7       110.7       110.7    
        110.7       110.7       110.7       110.7       110.7       110.7       110.7    
  13    110.7       110.7       110.7       110.7       110.7       110.7       110.7       110.7       110.7       110.7    
        110.7       110.7       110.7       110.7       110.7       110.7       110.7    
  14    110.7       110.7       110.7       110.7       110.7       110.7       110.7       110.7       110.7       110.7    
        110.7       110.7       110.7       110.7       110.7       110.7       110.7    
  15    110.7       110.7       110.7       110.7       110.7       110.7       110.7       110.7       110.7       110.7    
        110.7       110.7       110.7       110.7       110.7       110.7       110.7    
  16    110.7       110.7       110.7       110.7       110.7       110.7       110.7       110.7       110.7       110.7    
        110.7       110.7       110.7       110.7       110.7       110.7       110.7    
  17    110.7       110.7       110.7       110.7       110.7       110.7       110.7       110.7       110.7       110.7    
        110.7       110.7       110.7       110.7       110.7       110.7       110.7    
  18    110.7       110.7       110.7       110.7       110.7       110.7       110.7       110.7       110.7       110.7    
        110.7       110.7       110.7       110.7       110.7       110.7       110.7    
  19    110.7       110.7       110.7       110.7       110.7       110.7       110.7       110.7       110.7       110.7    
        110.7       110.7       110.7       110.7       110.7       110.7       110.7    
  20    110.7       110.7       110.7       110.7       110.7       110.7       110.7       110.7       110.7       110.7    
        110.7       110.7       110.7       110.7       110.7       110.7       110.7    
  21    110.7       110.7       110.7       110.7       110.7       110.7       110.7       110.7       110.7       110.7    
        110.7       110.7       110.7       110.7       110.7       110.7       110.7    
  22    110.7       110.7       110.7       110.7       110.7       110.7       110.7       110.7       110.7       110.7    
        110.7       110.7       110.7       110.7       110.7       110.7       110.7    



                       INITIAL HEAD FOR LAYER   4
 READING ON UNIT   13 WITH FORMAT: (FREE)              

            1           2           3           4           5           6           7           8           9          10
           11          12          13          14          15          16          17
 ........................................................................................................................
   1    110.7       110.7       110.7       110.7       110.7       110.8       110.8       110.8       110.8       110.8    
        110.8       110.7       110.7       110.7       110.7       110.7       110.7    
   2    110.7       110.7       110.7       110.7       110.7       110.8       110.8       110.8       110.8       110.8    
        110.8       110.7       110.7       110.7       110.7       110.7       110.7    
   3    110.7       110.7       110.7       110.7       110.7       110.7       110.8       110.8       110.8       110.8    
        110.7       110.7       110.7       110.7       110.7       110.7       110.7    
   4    110.7       110.7       110.7       110.7       110.7       110.7       110.7       110.7       110.7       110.7    
        110.7       110.7       110.7       110.7       110.7       110.7       110.7    
   5    110.7       110.7       110.7       110.7       110.7       110.7       110.7       110.7       110.7       110.7    
        110.7       110.7       110.7       110.7       110.7       110.7       110.7    
   6    110.7       110.7       110.7       110.7       110.7       110.7       110.7       110.7       110.7       110.7    
        110.7       110.7       110.7       110.7       110.7       110.7       110.7    
   7    110.7       110.7       110.7       110.7       110.7       110.7       110.7       110.7       110.7       110.7    
        110.7       110.7       110.7       110.7       110.7       110.7       110.7    
   8    110.7       110.7       110.7       110.7       110.7       110.7       110.7       110.7       110.7       110.7    
        110.7       110.7       110.7       110.7       110.7       110.7       110.7    
   9    110.7       110.7       110.7       110.7       110.7       110.7       110.7       110.7       110.7       110.7    
        110.7       110.7       110.7       110.7       110.7       110.7       110.7    
  10    110.7       110.7       110.7       110.7       110.7       110.7       110.7       110.7       110.7       110.7    
        110.7       110.7       110.7       110.7       110.7       110.7       110.7    
  11    110.7       110.7       110.7       110.7       110.7       110.7       110.7       110.7       110.7       110.7    
        110.7       110.7       110.7       110.7       110.7       110.7       110.7    
  12    110.7       110.7       110.7       110.7       110.7       110.7       110.7       110.7       110.7       110.7    
        110.7       110.7       110.7       110.7       110.7       110.7       110.7    
  13    110.7       110.7       110.7       110.7       110.7       110.7       110.7       110.7       110.7       110.7    
        110.7       110.7       110.7       110.7       110.7       110.7       110.7    
  14    110.7       110.7       110.7       110.7       110.7       110.7       110.7       110.7       110.7       110.7    
        110.7       110.7       110.7       110.7       110.7       110.7       110.7    
  15    110.7       110.7       110.7       110.7       110.7       110.7       110.7       110.7       110.7       110.7    
        110.7       110.7       110.7       110.7       110.7       110.7       110.7    
  16    110.7       110.7       110.7       110.7       110.7       110.7       110.7       110.7       110.7       110.7    
        110.7       110.7       110.7       110.7       110.7       110.7       110.7    
  17    110.7       110.7       110.7       110.7       110.7       110.7       110.7       110.7       110.7       110.7    
        110.7       110.7       110.7       110.7       110.7       110.7       110.7    
  18    110.7       110.7       110.7       110.7       110.7       110.7       110.7       110.7       110.7       110.7    
        110.7       110.7       110.7       110.7       110.7       110.7       110.7    
  19    110.7       110.7       110.7       110.7       110.7       110.7       110.7       110.7       110.7       110.7    
        110.7       110.7       110.7       110.7       110.7       110.7       110.7    
  20    110.7       110.7       110.7       110.7       110.7       110.7       110.7       110.7       110.7       110.7    
        110.7       110.7       110.7       110.7       110.7       110.7       110.7    
  21    110.7       110.7       110.7       110.7       110.7       110.7       110.7       110.7       110.7       110.7    
        110.7       110.7       110.7       110.7       110.7       110.7       110.7    
  22    110.7       110.7       110.7       110.7       110.7       110.7       110.7       110.7       110.7       110.7    
        110.7       110.7       110.7       110.7       110.7       110.7       110.7    



                       INITIAL HEAD FOR LAYER   5
 READING ON UNIT   13 WITH FORMAT: (FREE)              

            1           2           3           4           5           6           7           8           9          10
           11          12          13          14          15          16          17
 ........................................................................................................................
   1    110.7       110.7       110.7       110.7       110.7       110.8       110.8       110.8       110.8       110.8    
        110.8       110.7       110.7       110.7       110.7       110.7       110.7    
   2    110.7       110.7       110.7       110.7       110.7       110.8       110.8       110.8       110.8       110.8    
        110.8       110.7       110.7       110.7       110.7       110.7       110.7    
   3    110.7       110.7       110.7       110.7       110.7       110.7       110.8       110.8       110.8       110.8    
        110.7       110.7       110.7       110.7       110.7       110.7       110.7    
   4    110.7       110.7       110.7       110.7       110.7       110.7       110.7       110.7       110.7       110.7    
        110.7       110.7       110.7       110.7       110.7       110.7       110.7    
   5    110.7       110.7       110.7       110.7       110.7       110.7       110.7       110.7       110.7       110.7    
        110.7       110.7       110.7       110.7       110.7       110.7       110.7    
   6    110.7       110.7       110.7       110.7       110.7       110.7       110.7       110.7       110.7       110.7    
        110.7       110.7       110.7       110.7       110.7       110.7       110.7    
   7    110.7       110.7       110.7       110.7       110.7       110.7       110.7       110.7       110.7       110.7    
        110.7       110.7       110.7       110.7       110.7       110.7       110.7    
   8    110.7       110.7       110.7       110.7       110.7       110.7       110.7       110.7       110.7       110.7    
        110.7       110.7       110.7       110.7       110.7       110.7       110.7    
   9    110.7       110.7       110.7       110.7       110.7       110.7       110.7       110.7       110.7       110.7    
        110.7       110.7       110.7       110.7       110.7       110.7       110.7    
  10    110.7       110.7       110.7       110.7       110.7       110.7       110.7       110.7       110.7       110.7    
        110.7       110.7       110.7       110.7       110.7       110.7       110.7    
  11    110.7       110.7       110.7       110.7       110.7       110.7       110.7       110.7       110.7       110.7    
        110.7       110.7       110.7       110.7       110.7       110.7       110.7    
  12    110.7       110.7       110.7       110.7       110.7       110.7       110.7       110.7       110.7       110.7    
        110.7       110.7       110.7       110.7       110.7       110.7       110.7    
  13    110.7       110.7       110.7       110.7       110.7       110.7       110.7       110.7       110.7       110.7    
        110.7       110.7       110.7       110.7       110.7       110.7       110.7    
  14    110.7       110.7       110.7       110.7       110.7       110.7       110.7       110.7       110.7       110.7    
        110.7       110.7       110.7       110.7       110.7       110.7       110.7    
  15    110.7       110.7       110.7       110.7       110.7       110.7       110.7       110.7       110.7       110.7    
        110.7       110.7       110.7       110.7       110.7       110.7       110.7    
  16    110.7       110.7       110.7       110.7       110.7       110.7       110.7       110.7       110.7       110.7    
        110.7       110.7       110.7       110.7       110.7       110.7       110.7    
  17    110.7       110.7       110.7       110.7       110.7       110.7       110.7       110.7       110.7       110.7    
        110.7       110.7       110.7       110.7       110.7       110.7       110.7    
  18    110.7       110.7       110.7       110.7       110.7       110.7       110.7       110.7       110.7       110.7    
        110.7       110.7       110.7       110.7       110.7       110.7       110.7    
  19    110.7       110.7       110.7       110.7       110.7       110.7       110.7       110.7       110.7       110.7    
        110.7       110.7       110.7       110.7       110.7       110.7       110.7    
  20    110.7       110.7       110.7       110.7       110.7       110.7       110.7       110.7       110.7       110.7    
        110.7       110.7       110.7       110.7       110.7       110.7       110.7    
  21    110.7       110.7       110.7       110.7       110.7       110.7       110.7       110.7       110.7       110.7    
        110.7       110.7       110.7       110.7       110.7       110.7       110.7    
  22    110.7       110.7       110.7       110.7       110.7       110.7       110.7       110.7       110.7       110.7    
        110.7       110.7       110.7       110.7       110.7       110.7       110.7    
 # Output Control file created on 07.07.2016 by ModelMuse version 3.7.1.0.

 OUTPUT CONTROL IS SPECIFIED ONLY AT TIME STEPS FOR WHICH OUTPUT IS DESIRED
 HEADS WILL BE SAVED WITH FORMAT: (10(1X1PE13.5))     
 SAVED HEADS WILL BE LABELED
 DRAWDOWN WILL BE SAVED WITH FORMAT: (10(1X1PE13.5))     
 SAVED DRAWDOWN WILL BE LABELED
 COMPACT CELL-BY-CELL BUDGET FILES WILL BE WRITTEN
 AUXILIARY DATA WILL BE SAVED IN CELL-BY-CELL BUDGET FILES
 HEAD PRINT FORMAT CODE IS   0    DRAWDOWN PRINT FORMAT CODE IS   0
 HEADS WILL BE SAVED ON UNIT   37    DRAWDOWNS WILL BE SAVED ON UNIT   38

 LPF -- LAYER-PROPERTY FLOW PACKAGE, VERSION 7, 5/2/2005
         INPUT READ FROM UNIT   14
 # LPF: Layer Property Flow package file created on 07.07.2016 by ModelMuse version 3.7.1.0.
 CELL-BY-CELL FLOWS WILL BE SAVED ON UNIT    9
 HEAD AT CELLS THAT CONVERT TO DRY= -1.00000E+20
 No named parameters

   LAYER FLAGS:
 LAYER       LAYTYP        LAYAVG         CHANI        LAYVKA        LAYWET
 ---------------------------------------------------------------------------
    1             1             0    -1.000E+00             0             1
    2             1             0    -1.000E+00             0             1
    3             1             0    -1.000E+00             0             1
    4             1             0    -1.000E+00             0             1
    5             1             0    -1.000E+00             0             1

   INTERPRETATION OF LAYER FLAGS:
                        INTERBLOCK     HORIZONTAL    DATA IN
         LAYER TYPE   TRANSMISSIVITY   ANISOTROPY   ARRAY VKA   WETTABILITY
 LAYER      (LAYTYP)      (LAYAVG)       (CHANI)      (LAYVKA)      (LAYWET)
 ---------------------------------------------------------------------------
    1   CONVERTIBLE      HARMONIC      VARIABLE    VERTICAL K      WETTABLE
    2   CONVERTIBLE      HARMONIC      VARIABLE    VERTICAL K      WETTABLE
    3   CONVERTIBLE      HARMONIC      VARIABLE    VERTICAL K      WETTABLE
    4   CONVERTIBLE      HARMONIC      VARIABLE    VERTICAL K      WETTABLE
    5   CONVERTIBLE      HARMONIC      VARIABLE    VERTICAL K      WETTABLE

 WETTING CAPABILITY IS ACTIVE IN   5 LAYERS
  WETTING FACTOR=  0.500000000    
  WETTING ITERATION INTERVAL=          20
  IHDWET=           1



              HYD. COND. ALONG ROWS FOR LAYER   1
 READING ON UNIT   14 WITH FORMAT: (FREE)              

            1           2           3           4           5           6           7           8           9          10
           11          12          13          14          15          16          17
 ........................................................................................................................
   1   7.5000E-04  7.5000E-04  7.4000E-04  7.3000E-04  7.3000E-04  7.2000E-04  7.1000E-04  7.0000E-04  7.0000E-04  7.0000E-04
       7.1000E-04  7.2000E-04  7.3000E-04  7.4000E-04  7.5000E-04  7.6000E-04  7.6000E-04
   2   7.5000E-04  7.5000E-04  7.5000E-04  7.4000E-04  7.3000E-04  7.2000E-04  7.1000E-04  6.9000E-04  6.9000E-04  6.9000E-04
       7.1000E-04  7.2000E-04  7.3000E-04  7.5000E-04  7.5000E-04  7.6000E-04  7.7000E-04
   3   7.6000E-04  7.6000E-04  7.5000E-04  7.5000E-04  7.4000E-04  7.3000E-04  7.1000E-04  6.9000E-04  6.8000E-04  6.9000E-04
       7.1000E-04  7.2000E-04  7.4000E-04  7.5000E-04  7.6000E-04  7.7000E-04  7.7000E-04
   4   7.6000E-04  7.6000E-04  7.6000E-04  7.6000E-04  7.5000E-04  7.4000E-04  7.2000E-04  7.0000E-04  6.9000E-04  7.0000E-04
       7.1000E-04  7.3000E-04  7.5000E-04  7.6000E-04  7.7000E-04  7.7000E-04  7.8000E-04
   5   7.7000E-04  7.7000E-04  7.7000E-04  7.7000E-04  7.7000E-04  7.6000E-04  7.4000E-04  7.2000E-04  7.1000E-04  7.1000E-04
       7.2000E-04  7.4000E-04  7.6000E-04  7.7000E-04  7.8000E-04  7.8000E-04  7.8000E-04
   6   7.8000E-04  7.8000E-04  7.8000E-04  7.9000E-04  8.0000E-04  7.8000E-04  7.5000E-04  7.3000E-04  7.2000E-04  7.1000E-04
       7.2000E-04  7.4000E-04  7.7000E-04  7.8000E-04  7.9000E-04  7.9000E-04  7.9000E-04
   7   7.8000E-04  7.8000E-04  7.9000E-04  8.0000E-04  8.0000E-04  7.9000E-04  7.6000E-04  7.3000E-04  7.1000E-04  7.1000E-04
       7.2000E-04  7.4000E-04  7.7000E-04  7.9000E-04  7.9000E-04  7.9000E-04  7.9000E-04
   8   7.8000E-04  7.8000E-04  7.9000E-04  7.9000E-04  7.9000E-04  7.7000E-04  7.4000E-04  7.2000E-04  7.0000E-04  6.9000E-04
       7.0000E-04  7.2000E-04  7.6000E-04  7.9000E-04  7.9000E-04  7.9000E-04  7.8000E-04
   9   7.7000E-04  7.7000E-04  7.8000E-04  7.8000E-04  7.7000E-04  7.5000E-04  7.2000E-04  7.0000E-04  6.8000E-04  6.6000E-04
       6.6000E-04  6.8000E-04  7.1000E-04  7.5000E-04  7.6000E-04  7.7000E-04  7.7000E-04
  10   7.6000E-04  7.6000E-04  7.6000E-04  7.6000E-04  7.5000E-04  7.3000E-04  7.0000E-04  6.8000E-04  6.5000E-04  6.2000E-04
       6.1000E-04  6.2000E-04  6.6000E-04  7.0000E-04  7.3000E-04  7.5000E-04  7.6000E-04
  11   7.5000E-04  7.5000E-04  7.5000E-04  7.4000E-04  7.3000E-04  7.1000E-04  6.8000E-04  6.6000E-04  6.3000E-04  6.0000E-04
       5.6000E-04  5.6000E-04  6.2000E-04  6.6000E-04  7.0000E-04  7.2000E-04  7.4000E-04
  12   7.4000E-04  7.4000E-04  7.3000E-04  7.2000E-04  7.1000E-04  6.9000E-04  6.7000E-04  6.4000E-04  6.1000E-04  5.9000E-04
       5.6000E-04  5.7000E-04  6.0000E-04  6.4000E-04  6.7000E-04  6.9000E-04  7.2000E-04
  13   7.3000E-04  7.3000E-04  7.2000E-04  7.1000E-04  6.9000E-04  6.8000E-04  6.6000E-04  6.3000E-04  6.1000E-04  5.9000E-04
       5.8000E-04  5.8000E-04  6.0000E-04  6.3000E-04  6.5000E-04  6.8000E-04  7.0000E-04
  14   7.2000E-04  7.1000E-04  7.1000E-04  7.0000E-04  6.8000E-04  6.7000E-04  6.5000E-04  6.3000E-04  6.1000E-04  6.0000E-04
       5.9000E-04  5.9000E-04  6.1000E-04  6.3000E-04  6.5000E-04  6.6000E-04  6.9000E-04
  15   7.1000E-04  7.1000E-04  7.0000E-04  6.9000E-04  6.7000E-04  6.6000E-04  6.5000E-04  6.3000E-04  6.2000E-04  6.1000E-04
       6.0000E-04  6.0000E-04  6.1000E-04  6.3000E-04  6.4000E-04  6.6000E-04  6.8000E-04
  16   7.0000E-04  7.0000E-04  6.9000E-04  6.8000E-04  6.7000E-04  6.6000E-04  6.4000E-04  6.3000E-04  6.2000E-04  6.1000E-04
       6.1000E-04  6.1000E-04  6.2000E-04  6.3000E-04  6.4000E-04  6.5000E-04  6.7000E-04
  17   7.0000E-04  6.9000E-04  6.8000E-04  6.7000E-04  6.6000E-04  6.5000E-04  6.4000E-04  6.3000E-04  6.3000E-04  6.2000E-04
       6.2000E-04  6.2000E-04  6.2000E-04  6.3000E-04  6.4000E-04  6.5000E-04  6.6000E-04
  18   6.9000E-04  6.9000E-04  6.8000E-04  6.7000E-04  6.6000E-04  6.5000E-04  6.4000E-04  6.4000E-04  6.3000E-04  6.2000E-04
       6.2000E-04  6.2000E-04  6.3000E-04  6.3000E-04  6.4000E-04  6.5000E-04  6.6000E-04
  19   6.9000E-04  6.8000E-04  6.7000E-04  6.7000E-04  6.6000E-04  6.5000E-04  6.5000E-04  6.4000E-04  6.3000E-04  6.3000E-04
       6.3000E-04  6.3000E-04  6.3000E-04  6.4000E-04  6.4000E-04  6.5000E-04  6.6000E-04
  20   6.8000E-04  6.8000E-04  6.7000E-04  6.7000E-04  6.6000E-04  6.5000E-04  6.5000E-04  6.4000E-04  6.4000E-04  6.3000E-04
       6.3000E-04  6.3000E-04  6.3000E-04  6.4000E-04  6.4000E-04  6.5000E-04  6.6000E-04
  21   6.8000E-04  6.8000E-04  6.7000E-04  6.6000E-04  6.6000E-04  6.5000E-04  6.5000E-04  6.4000E-04  6.4000E-04  6.4000E-04
       6.4000E-04  6.4000E-04  6.4000E-04  6.4000E-04  6.4000E-04  6.5000E-04  6.6000E-04
  22   6.8000E-04  6.7000E-04  6.7000E-04  6.6000E-04  6.6000E-04  6.5000E-04  6.5000E-04  6.5000E-04  6.4000E-04  6.4000E-04
       6.4000E-04  6.4000E-04  6.4000E-04  6.4000E-04  6.5000E-04  6.5000E-04  6.6000E-04

   HORIZ. ANI. (COL./ROW) =   1.00000     FOR LAYER   1



                VERTICAL HYD. COND. FOR LAYER   1
 READING ON UNIT   14 WITH FORMAT: (FREE)              

            1           2           3           4           5           6           7           8           9          10
           11          12          13          14          15          16          17
 ........................................................................................................................
   1    1.000       1.000       1.000       1.000       1.000       1.000       1.000       1.000       1.000       1.000    
        1.000       1.000       1.000       1.000       1.000       1.000       1.000    
   2   1.5000E-04  1.5000E-04  1.5000E-04  1.4800E-04  1.4600E-04  1.4400E-04  1.4200E-04  1.3800E-04  1.3800E-04  1.3800E-04
       1.4200E-04  1.4400E-04  1.4600E-04  1.5000E-04  1.5000E-04  1.5200E-04  1.5400E-04
   3   1.5200E-04  1.5200E-04  1.5000E-04  1.5000E-04  1.4800E-04  1.4600E-04  1.4200E-04  1.3800E-04  1.3600E-04  1.3800E-04
       1.4200E-04  1.4400E-04  1.4800E-04  1.5000E-04  1.5200E-04  1.5400E-04  1.5400E-04
   4   1.5200E-04  1.5200E-04  1.5200E-04  1.5200E-04  1.5000E-04  1.4800E-04  1.4400E-04  1.4000E-04  1.3800E-04  1.4000E-04
       1.4200E-04  1.4600E-04  1.5000E-04  1.5200E-04  1.5400E-04  1.5400E-04  1.5600E-04
   5   1.5400E-04  1.5400E-04  1.5400E-04  1.5400E-04  1.5400E-04  1.5200E-04  1.4800E-04  1.4400E-04  1.4200E-04  1.4200E-04
       1.4400E-04  1.4800E-04  1.5200E-04  1.5400E-04  1.5600E-04  1.5600E-04  1.5600E-04
   6   1.5600E-04  1.5600E-04  1.5600E-04  1.5800E-04  1.6000E-04  1.5600E-04  1.5000E-04  1.4600E-04  1.4400E-04  1.4200E-04
       1.4400E-04  1.4800E-04  1.5400E-04  1.5600E-04  1.5800E-04  1.5800E-04  1.5800E-04
   7   1.5600E-04  1.5600E-04  1.5800E-04  1.6000E-04  1.6000E-04  1.5800E-04  1.5200E-04  1.4600E-04  1.4200E-04  1.4200E-04
       1.4400E-04  1.4800E-04  1.5400E-04  1.5800E-04  1.5800E-04  1.5800E-04  1.5800E-04
   8   1.5600E-04  1.5600E-04  1.5800E-04  1.5800E-04  1.5800E-04  1.5400E-04  1.4800E-04  1.4400E-04  1.4000E-04  1.3800E-04
       1.4000E-04  1.4400E-04  1.5200E-04  1.5800E-04  1.5800E-04  1.5800E-04  1.5600E-04
   9   1.5400E-04  1.5400E-04  1.5600E-04  1.5600E-04  1.5400E-04  1.5000E-04  1.4400E-04  1.4000E-04  1.3600E-04  1.3200E-04
       1.3200E-04  1.3600E-04  1.4200E-04  1.5000E-04  1.5200E-04  1.5400E-04  1.5400E-04
  10   1.5200E-04  1.5200E-04  1.5200E-04  1.5200E-04  1.5000E-04  1.4600E-04  1.4000E-04  1.3600E-04  1.3000E-04  1.2400E-04
       1.2200E-04  1.2400E-04  1.3200E-04  1.4000E-04  1.4600E-04  1.5000E-04  1.5200E-04
  11   1.5000E-04  1.5000E-04  1.5000E-04  1.4800E-04  1.4600E-04  1.4200E-04  1.3600E-04  1.3200E-04  1.2600E-04  1.2000E-04
       1.1200E-04  1.1200E-04  1.2400E-04  1.3200E-04  1.4000E-04  1.4400E-04  1.4800E-04
  12   1.4800E-04  1.4800E-04  1.4600E-04  1.4400E-04  1.4200E-04  1.3800E-04  1.3400E-04  1.2800E-04  1.2200E-04  1.1800E-04
       1.1200E-04  1.1400E-04  1.2000E-04  1.2800E-04  1.3400E-04  1.3800E-04  1.4400E-04
  13   1.4600E-04  1.4600E-04  1.4400E-04  1.4200E-04  1.3800E-04  1.3600E-04  1.3200E-04  1.2600E-04  1.2200E-04  1.1800E-04
       1.1600E-04  1.1600E-04  1.2000E-04  1.2600E-04  1.3000E-04  1.3600E-04  1.4000E-04
  14   1.4400E-04  1.4200E-04  1.4200E-04  1.4000E-04  1.3600E-04  1.3400E-04  1.3000E-04  1.2600E-04  1.2200E-04  1.2000E-04
       1.1800E-04  1.1800E-04  1.2200E-04  1.2600E-04  1.3000E-04  1.3200E-04  1.3800E-04
  15   1.4200E-04  1.4200E-04  1.4000E-04  1.3800E-04  1.3400E-04  1.3200E-04  1.3000E-04  1.2600E-04  1.2400E-04  1.2200E-04
       1.2000E-04  1.2000E-04  1.2200E-04  1.2600E-04  1.2800E-04  1.3200E-04  1.3600E-04
  16   1.4000E-04  1.4000E-04  1.3800E-04  1.3600E-04  1.3400E-04  1.3200E-04  1.2800E-04  1.2600E-04  1.2400E-04  1.2200E-04
       1.2200E-04  1.2200E-04  1.2400E-04  1.2600E-04  1.2800E-04  1.3000E-04  1.3400E-04
  17   1.4000E-04  1.3800E-04  1.3600E-04  1.3400E-04  1.3200E-04  1.3000E-04  1.2800E-04  1.2600E-04  1.2600E-04  1.2400E-04
       1.2400E-04  1.2400E-04  1.2400E-04  1.2600E-04  1.2800E-04  1.3000E-04   1.000    
  18   1.3800E-04  1.3800E-04  1.3600E-04  1.3400E-04  1.3200E-04  1.3000E-04  1.2800E-04  1.2800E-04  1.2600E-04  1.2400E-04
       1.2400E-04  1.2400E-04  1.2600E-04  1.2600E-04  1.2800E-04   1.000       1.000    
  19   1.3800E-04  1.3600E-04  1.3400E-04  1.3400E-04  1.3200E-04  1.3000E-04  1.3000E-04  1.2800E-04  1.2600E-04  1.2600E-04
       1.2600E-04  1.2600E-04  1.2600E-04  1.2800E-04   1.000       1.000      1.3200E-04
  20   1.3600E-04  1.3600E-04  1.3400E-04  1.3400E-04  1.3200E-04  1.3000E-04  1.3000E-04  1.2800E-04  1.2800E-04  1.2600E-04
        1.000       1.000       1.000       1.000       1.000      1.3000E-04  1.3200E-04
  21   1.3600E-04  1.3600E-04  1.3400E-04  1.3200E-04   1.000       1.000       1.000       1.000       1.000       1.000    
        1.000      1.2800E-04  1.2800E-04  1.2800E-04  1.2800E-04  1.3000E-04  1.3200E-04
  22    1.000       1.000       1.000       1.000       1.000      1.3000E-04  1.3000E-04  1.3000E-04  1.2800E-04  1.2800E-04
       1.2800E-04  1.2800E-04  1.2800E-04  1.2800E-04  1.3000E-04  1.3000E-04  1.3200E-04

         SPECIFIC STORAGE =  1.000000E-05 FOR LAYER   1

           SPECIFIC YIELD =  0.200000     FOR LAYER   1



                   WETDRY PARAMETER FOR LAYER   1
 READING ON UNIT   14 WITH FORMAT: (FREE)              

            1           2           3           4           5           6           7           8           9          10
           11          12          13          14          15          16          17
 ........................................................................................................................
   1   0.7310      0.7310      0.7234      0.7145      0.7055      0.6966      0.6876      0.6787      0.6747      0.6747    
       0.6747      0.6547      0.6341      0.6134      0.5928      0.5721      0.5466    
   2   0.7310      0.7310      0.7273      0.7183      0.7094      0.7004      0.6915      0.6825      0.6747      0.6728    
       0.6522      0.6315      0.6109      0.5902      0.5696      0.5490      0.5234    
   3   0.7310      0.7310      0.7304      0.7214      0.7125      0.7035      0.6946      0.6856      0.6772      0.6543    
       0.6336      0.6130      0.5923      0.5717      0.5511      0.5304      0.5049    
   4   0.7310      0.7310      0.7310      0.7245      0.7156      0.7071      0.7004      0.6930      0.6625      0.6319    
       0.6151      0.5944      0.5738      0.5532      0.5325      0.5119      0.4863    
   5   0.7194      0.7220      0.7246      0.7301      0.7234      0.7166      0.7088      0.6783      0.6477      0.6172    
       0.5866      0.5759      0.5553      0.5346      0.5140      0.4933      0.4678    
   6   0.7010      0.7010      0.7029      0.7126      0.7269      0.7247      0.6941      0.6636      0.6330      0.6025    
       0.5719      0.5413      0.5367      0.5161      0.4954      0.4748      0.4493    
   7   0.7010      0.6924      0.6637      0.6431      0.6610      0.6788      0.6813      0.6501      0.6190      0.5879    
       0.5572      0.5266      0.4961      0.4975      0.4769      0.4562      0.4307    
   8   0.6658      0.6371      0.6085      0.5798      0.5816      0.5993      0.6169      0.6346      0.6079      0.5768    
       0.5457      0.5145      0.4834      0.4552      0.4583      0.4377      0.4122    
   9   0.6106      0.5819      0.5532      0.5245      0.5167      0.5197      0.5374      0.5551      0.5727      0.5657    
       0.5346      0.5034      0.4723      0.4515      0.4312      0.4174      0.3960    
  10   0.5553      0.5266      0.5180      0.5180      0.5156      0.5117      0.5078      0.5039      0.5000      0.5109    
       0.5235      0.4924      0.4681      0.4478      0.4279      0.4096      0.3960    
  11   0.5180      0.5180      0.5180      0.5180      0.5145      0.5106      0.5067      0.5028      0.4989      0.4950    
       0.4912      0.4873      0.4690      0.4507      0.4324      0.4141      0.3960    
  12   0.5180      0.5180      0.5180      0.5173      0.5135      0.5096      0.5057      0.5018      0.4979      0.4940    
       0.4901      0.4880      0.4735      0.4552      0.4369      0.4186      0.3960    
  13   0.5180      0.5180      0.5180      0.5163      0.5124      0.5085      0.5046      0.5007      0.4968      0.4929    
       0.4890      0.4880      0.4780      0.4597      0.4414      0.4231      0.4005    
  14   0.5180      0.5180      0.5180      0.5152      0.5113      0.5074      0.5035      0.4996      0.4957      0.4918    
       0.4880      0.4880      0.4825      0.4642      0.4459      0.4276      0.4050    
  15   0.5180      0.5180      0.5180      0.5141      0.5102      0.5063      0.5025      0.4986      0.4947      0.4908    
       0.4880      0.4880      0.4870      0.4687      0.4504      0.4321      0.4095    
  16   0.5180      0.5180      0.5170      0.5131      0.5092      0.5053      0.5014      0.4975      0.4936      0.4897    
       0.4880      0.4880      0.4880      0.4732      0.4549      0.4366      0.4140    
  17   0.5180      0.5180      0.5159      0.5120      0.5081      0.5042      0.5003      0.4964      0.4925      0.4886    
       0.4880      0.4880      0.4880      0.4777      0.4594      0.4411      0.4185    
  18   0.5180      0.5180      0.5148      0.5109      0.5070      0.5031      0.4992      0.4953      0.4915      0.4880    
       0.4880      0.4880      0.4880      0.4822      0.4639      0.4456      0.4230    
  19   0.5180      0.5176      0.5138      0.5099      0.5060      0.5021      0.4982      0.4943      0.4904      0.4880    
       0.4880      0.4880      0.4880      0.4867      0.4684      0.4501      0.4275    
  20   0.5180      0.5166      0.5127      0.5088      0.5049      0.5010      0.4971      0.4932      0.4893      0.4880    
       0.4880      0.4880      0.4880      0.4880      0.4729      0.4546      0.4320    
  21   0.5180      0.5155      0.5116      0.5077      0.5038      0.4999      0.4960      0.4921      0.4882      0.4880    
       0.4880      0.4880      0.4880      0.4880      0.4774      0.4591      0.4365    
  22   0.5180      0.5144      0.5105      0.5066      0.5028      0.4989      0.4950      0.4911      0.4880      0.4880    
       0.4880      0.4880      0.4880      0.4880      0.4818      0.4636      0.4409    



              HYD. COND. ALONG ROWS FOR LAYER   2
 READING ON UNIT   14 WITH FORMAT: (FREE)              

            1           2           3           4           5           6           7           8           9          10
           11          12          13          14          15          16          17
 ........................................................................................................................
   1   2.5000E-04  2.8000E-04  3.1000E-04  3.6000E-04  4.0000E-04  4.5000E-04  4.9000E-04  5.2000E-04  5.2000E-04  5.1000E-04
       4.9000E-04  4.6000E-04  4.3000E-04  4.0000E-04  3.7000E-04  3.5000E-04  3.2000E-04
   2   2.2000E-04  2.4000E-04  2.8000E-04  3.4000E-04  4.1000E-04  4.8000E-04  5.4000E-04  5.7000E-04  5.8000E-04  5.5000E-04
       5.0000E-04  4.6000E-04  4.2000E-04  3.8000E-04  3.5000E-04  3.2000E-04  2.9000E-04
   3   2.0000E-04  2.1000E-04  2.5000E-04  3.3000E-04  4.2000E-04  5.1000E-04  5.7000E-04  6.1000E-04  6.2000E-04  5.6000E-04
       5.0000E-04  4.5000E-04  4.0000E-04  3.6000E-04  3.2000E-04  3.0000E-04  2.7000E-04
   4   1.8000E-04  1.8000E-04  2.1000E-04  3.2000E-04  4.5000E-04  5.4000E-04  6.0000E-04  6.2000E-04  6.0000E-04  5.5000E-04
       4.8000E-04  4.2000E-04  3.7000E-04  3.2000E-04  2.9000E-04  2.7000E-04  2.5000E-04
   5   1.9000E-04  1.8000E-04  1.5000E-04  3.4000E-04  5.1000E-04  6.0000E-04  6.2000E-04  6.1000E-04  5.8000E-04  5.2000E-04
       4.5000E-04  3.8000E-04  3.3000E-04  2.8000E-04  2.5000E-04  2.4000E-04  2.2000E-04
   6   2.3000E-04  2.6000E-04  3.4000E-04  4.6000E-04  6.3000E-04  6.7000E-04  6.4000E-04  5.9000E-04  5.4000E-04  4.8000E-04
       4.1000E-04  3.4000E-04  2.7000E-04  2.3000E-04  2.1000E-04  2.0000E-04  2.0000E-04
   7   2.6000E-04  3.2000E-04  4.2000E-04  5.2000E-04  6.6000E-04  6.7000E-04  6.1000E-04  5.6000E-04  5.0000E-04  4.3000E-04
       3.6000E-04  2.9000E-04  2.1000E-04  1.7000E-04  1.7000E-04  1.7000E-04  1.7000E-04
   8   2.6000E-04  3.1000E-04  3.6000E-04  4.3000E-04  5.1000E-04  5.5000E-04  5.3000E-04  5.0000E-04  4.5000E-04  3.9000E-04
       3.2000E-04  2.5000E-04  1.6000E-04  1.2000E-04  1.4000E-04  1.5000E-04  1.6000E-04
   9   2.4000E-04  2.7000E-04  2.9000E-04  2.9000E-04  3.6000E-04  4.3000E-04  4.4000E-04  4.3000E-04  4.0000E-04  3.5000E-04
       2.9000E-04  2.3000E-04  1.7000E-04  1.3000E-04  1.3000E-04  1.4000E-04  1.5000E-04
  10   2.3000E-04  2.4000E-04  2.5000E-04  2.6000E-04  3.0000E-04  3.4000E-04  3.7000E-04  3.7000E-04  3.5000E-04  3.2000E-04
       2.7000E-04  2.3000E-04  1.8000E-04  1.5000E-04  1.4000E-04  1.4000E-04  1.4000E-04
  11   2.1000E-04  2.2000E-04  2.3000E-04  2.4000E-04  2.7000E-04  3.0000E-04  3.1000E-04  3.2000E-04  3.1000E-04  2.9000E-04
       2.6000E-04  2.3000E-04  1.9000E-04  1.6000E-04  1.5000E-04  1.4000E-04  1.4000E-04
  12   2.0000E-04  2.1000E-04  2.1000E-04  2.3000E-04  2.4000E-04  2.6000E-04  2.8000E-04  2.8000E-04  2.7000E-04  2.6000E-04
       2.4000E-04  2.2000E-04  1.9000E-04  1.7000E-04  1.5000E-04  1.5000E-04  1.4000E-04
  13   1.9000E-04  1.9000E-04  2.0000E-04  2.1000E-04  2.3000E-04  2.4000E-04  2.5000E-04  2.5000E-04  2.5000E-04  2.4000E-04
       2.2000E-04  2.0000E-04  1.8000E-04  1.7000E-04  1.5000E-04  1.5000E-04  1.4000E-04
  14   1.8000E-04  1.9000E-04  1.9000E-04  2.0000E-04  2.1000E-04  2.2000E-04  2.2000E-04  2.3000E-04  2.2000E-04  2.2000E-04
       2.1000E-04  1.9000E-04  1.8000E-04  1.7000E-04  1.5000E-04  1.5000E-04  1.4000E-04
  15   1.7000E-04  1.8000E-04  1.8000E-04  1.9000E-04  2.0000E-04  2.0000E-04  2.1000E-04  2.1000E-04  2.1000E-04  2.0000E-04
       1.9000E-04  1.8000E-04  1.7000E-04  1.6000E-04  1.5000E-04  1.5000E-04  1.4000E-04
  16   1.7000E-04  1.7000E-04  1.8000E-04  1.8000E-04  1.9000E-04  1.9000E-04  1.9000E-04  1.9000E-04  1.9000E-04  1.9000E-04
       1.8000E-04  1.7000E-04  1.6000E-04  1.6000E-04  1.5000E-04  1.4000E-04  1.4000E-04
  17   1.6000E-04  1.6000E-04  1.7000E-04  1.7000E-04  1.8000E-04  1.8000E-04  1.8000E-04  1.8000E-04  1.8000E-04  1.8000E-04
       1.7000E-04  1.6000E-04  1.6000E-04  1.5000E-04  1.5000E-04  1.4000E-04  1.4000E-04
  18   1.5000E-04  1.6000E-04  1.6000E-04  1.6000E-04  1.7000E-04  1.7000E-04  1.7000E-04  1.7000E-04  1.7000E-04  1.7000E-04
       1.6000E-04  1.6000E-04  1.5000E-04  1.5000E-04  1.4000E-04  1.4000E-04  1.3000E-04
  19   1.5000E-04  1.5000E-04  1.5000E-04  1.6000E-04  1.6000E-04  1.6000E-04  1.6000E-04  1.6000E-04  1.6000E-04  1.6000E-04
       1.5000E-04  1.5000E-04  1.5000E-04  1.4000E-04  1.4000E-04  1.4000E-04  1.3000E-04
  20   1.4000E-04  1.5000E-04  1.5000E-04  1.5000E-04  1.5000E-04  1.5000E-04  1.5000E-04  1.5000E-04  1.5000E-04  1.5000E-04
       1.5000E-04  1.4000E-04  1.4000E-04  1.4000E-04  1.4000E-04  1.3000E-04  1.3000E-04
  21   1.4000E-04  1.4000E-04  1.4000E-04  1.4000E-04  1.4000E-04  1.5000E-04  1.5000E-04  1.5000E-04  1.5000E-04  1.4000E-04
       1.4000E-04  1.4000E-04  1.4000E-04  1.3000E-04  1.3000E-04  1.3000E-04  1.3000E-04
  22   1.3000E-04  1.4000E-04  1.4000E-04  1.4000E-04  1.4000E-04  1.4000E-04  1.4000E-04  1.4000E-04  1.4000E-04  1.4000E-04
       1.4000E-04  1.3000E-04  1.3000E-04  1.3000E-04  1.3000E-04  1.3000E-04  1.2000E-04

   HORIZ. ANI. (COL./ROW) =   1.00000     FOR LAYER   2



                VERTICAL HYD. COND. FOR LAYER   2
 READING ON UNIT   14 WITH FORMAT: (FREE)              

            1           2           3           4           5           6           7           8           9          10
           11          12          13          14          15          16          17
 ........................................................................................................................
   1    1.000       1.000       1.000       1.000       1.000       1.000       1.000       1.000       1.000       1.000    
        1.000       1.000       1.000       1.000       1.000       1.000       1.000    
   2   4.4000E-05  4.8000E-05  5.6000E-05  6.8000E-05  8.2000E-05  9.6000E-05  1.0800E-04  1.1400E-04  1.1600E-04  1.1000E-04
       1.0000E-04  9.2000E-05  8.4000E-05  7.6000E-05  7.0000E-05  6.4000E-05  5.8000E-05
   3   4.0000E-05  4.2000E-05  5.0000E-05  6.6000E-05  8.4000E-05  1.0200E-04  1.1400E-04  1.2200E-04  1.2400E-04  1.1200E-04
       1.0000E-04  9.0000E-05  8.0000E-05  7.2000E-05  6.4000E-05  6.0000E-05  5.4000E-05
   4   3.6000E-05  3.6000E-05  4.2000E-05  6.4000E-05  9.0000E-05  1.0800E-04  1.2000E-04  1.2400E-04  1.2000E-04  1.1000E-04
       9.6000E-05  8.4000E-05  7.4000E-05  6.4000E-05  5.8000E-05  5.4000E-05  5.0000E-05
   5   3.8000E-05  3.6000E-05  3.0000E-05  6.8000E-05  1.0200E-04  1.2000E-04  1.2400E-04  1.2200E-04  1.1600E-04  1.0400E-04
       9.0000E-05  7.6000E-05  6.6000E-05  5.6000E-05  5.0000E-05  4.8000E-05  4.4000E-05
   6   4.6000E-05  5.2000E-05  6.8000E-05  9.2000E-05  1.2600E-04  1.3400E-04  1.2800E-04  1.1800E-04  1.0800E-04  9.6000E-05
       8.2000E-05  6.8000E-05  5.4000E-05  4.6000E-05  4.2000E-05  4.0000E-05  4.0000E-05
   7   5.2000E-05  6.4000E-05  8.4000E-05  1.0400E-04  1.3200E-04  1.3400E-04  1.2200E-04  1.1200E-04  1.0000E-04  8.6000E-05
       7.2000E-05  5.8000E-05  4.2000E-05  3.4000E-05  3.4000E-05  3.4000E-05  3.4000E-05
   8   5.2000E-05  6.2000E-05  7.2000E-05  8.6000E-05  1.0200E-04  1.1000E-04  1.0600E-04  1.0000E-04  9.0000E-05  7.8000E-05
       6.4000E-05  5.0000E-05  3.2000E-05  2.4000E-05  2.8000E-05  3.0000E-05  3.2000E-05
   9   4.8000E-05  5.4000E-05  5.8000E-05  5.8000E-05  7.2000E-05  8.6000E-05  8.8000E-05  8.6000E-05  8.0000E-05  7.0000E-05
       5.8000E-05  4.6000E-05  3.4000E-05  2.6000E-05  2.6000E-05  2.8000E-05  3.0000E-05
  10   4.6000E-05  4.8000E-05  5.0000E-05  5.2000E-05  6.0000E-05  6.8000E-05  7.4000E-05  7.4000E-05  7.0000E-05  6.4000E-05
       5.4000E-05  4.6000E-05  3.6000E-05  3.0000E-05  2.8000E-05  2.8000E-05  2.8000E-05
  11   4.2000E-05  4.4000E-05  4.6000E-05  4.8000E-05  5.4000E-05  6.0000E-05  6.2000E-05  6.4000E-05  6.2000E-05  5.8000E-05
       5.2000E-05  4.6000E-05  3.8000E-05  3.2000E-05  3.0000E-05  2.8000E-05  2.8000E-05
  12   4.0000E-05  4.2000E-05  4.2000E-05  4.6000E-05  4.8000E-05  5.2000E-05  5.6000E-05  5.6000E-05  5.4000E-05  5.2000E-05
       4.8000E-05  4.4000E-05  3.8000E-05  3.4000E-05  3.0000E-05  3.0000E-05  2.8000E-05
  13   3.8000E-05  3.8000E-05  4.0000E-05  4.2000E-05  4.6000E-05  4.8000E-05  5.0000E-05  5.0000E-05  5.0000E-05  4.8000E-05
       4.4000E-05  4.0000E-05  3.6000E-05  3.4000E-05  3.0000E-05  3.0000E-05  2.8000E-05
  14   3.6000E-05  3.8000E-05  3.8000E-05  4.0000E-05  4.2000E-05  4.4000E-05  4.4000E-05  4.6000E-05  4.4000E-05  4.4000E-05
       4.2000E-05  3.8000E-05  3.6000E-05  3.4000E-05  3.0000E-05  3.0000E-05  2.8000E-05
  15   3.4000E-05  3.6000E-05  3.6000E-05  3.8000E-05  4.0000E-05  4.0000E-05  4.2000E-05  4.2000E-05  4.2000E-05  4.0000E-05
       3.8000E-05  3.6000E-05  3.4000E-05  3.2000E-05  3.0000E-05  3.0000E-05  2.8000E-05
  16   3.4000E-05  3.4000E-05  3.6000E-05  3.6000E-05  3.8000E-05  3.8000E-05  3.8000E-05  3.8000E-05  3.8000E-05  3.8000E-05
       3.6000E-05  3.4000E-05  3.2000E-05  3.2000E-05  3.0000E-05  2.8000E-05  2.8000E-05
  17   3.2000E-05  3.2000E-05  3.4000E-05  3.4000E-05  3.6000E-05  3.6000E-05  3.6000E-05  3.6000E-05  3.6000E-05  3.6000E-05
       3.4000E-05  3.2000E-05  3.2000E-05  3.0000E-05  3.0000E-05  2.8000E-05   1.000    
  18   3.0000E-05  3.2000E-05  3.2000E-05  3.2000E-05  3.4000E-05  3.4000E-05  3.4000E-05  3.4000E-05  3.4000E-05  3.4000E-05
       3.2000E-05  3.2000E-05  3.0000E-05  3.0000E-05  2.8000E-05   1.000       1.000    
  19   3.0000E-05  3.0000E-05  3.0000E-05  3.2000E-05  3.2000E-05  3.2000E-05  3.2000E-05  3.2000E-05  3.2000E-05  3.2000E-05
       3.0000E-05  3.0000E-05  3.0000E-05  2.8000E-05   1.000       1.000      2.6000E-05
  20   2.8000E-05  3.0000E-05  3.0000E-05  3.0000E-05  3.0000E-05  3.0000E-05  3.0000E-05  3.0000E-05  3.0000E-05  3.0000E-05
        1.000       1.000       1.000       1.000       1.000      2.6000E-05  2.6000E-05
  21   2.8000E-05  2.8000E-05  2.8000E-05  2.8000E-05   1.000       1.000       1.000       1.000       1.000       1.000    
        1.000      2.8000E-05  2.8000E-05  2.6000E-05  2.6000E-05  2.6000E-05  2.6000E-05
  22    1.000       1.000       1.000       1.000       1.000      2.8000E-05  2.8000E-05  2.8000E-05  2.8000E-05  2.8000E-05
       2.8000E-05  2.6000E-05  2.6000E-05  2.6000E-05  2.6000E-05  2.6000E-05  2.4000E-05

         SPECIFIC STORAGE =  1.000000E-05 FOR LAYER   2

           SPECIFIC YIELD =  0.200000     FOR LAYER   2



                   WETDRY PARAMETER FOR LAYER   2
 READING ON UNIT   14 WITH FORMAT: (FREE)              

            1           2           3           4           5           6           7           8           9          10
           11          12          13          14          15          16          17
 ........................................................................................................................
   1   0.3360      0.3360      0.3379      0.3401      0.3423      0.3446      0.3468      0.3490      0.3500      0.3500    
       0.3500      0.3533      0.3567      0.3601      0.3635      0.3669      0.3711    
   2   0.3360      0.3360      0.3369      0.3391      0.3414      0.3436      0.3458      0.3480      0.3500      0.3503    
       0.3537      0.3571      0.3605      0.3639      0.3673      0.3708      0.3750    
   3   0.3360      0.3360      0.3362      0.3384      0.3406      0.3428      0.3451      0.3473      0.3508      0.3534    
       0.3568      0.3602      0.3636      0.3670      0.3704      0.3738      0.3780    
   4   0.3360      0.3360      0.3360      0.3376      0.3398      0.3430      0.3493      0.3555      0.3580      0.3604    
       0.3598      0.3632      0.3667      0.3701      0.3735      0.3769      0.3811    
   5   0.3476      0.3450      0.3424      0.3415      0.3478      0.3541      0.3602      0.3627      0.3651      0.3676    
       0.3700      0.3663      0.3697      0.3731      0.3765      0.3799      0.3841    
   6   0.3660      0.3660      0.3641      0.3623      0.3610      0.3649      0.3674      0.3698      0.3723      0.3747    
       0.3772      0.3796      0.3728      0.3762      0.3796      0.3830      0.3872    
   7   0.3660      0.3603      0.3412      0.3259      0.3288      0.3397      0.3536      0.3626      0.3716      0.3806    
       0.3843      0.3868      0.3892      0.3792      0.3827      0.3861      0.3903    
   8   0.3425      0.3234      0.3043      0.2852      0.2805      0.2965      0.3125      0.3286      0.3383      0.3473    
       0.3562      0.3652      0.3742      0.3861      0.3857      0.3891      0.3933    
   9   0.3057      0.2866      0.2675      0.2483      0.2453      0.2532      0.2693      0.2853      0.3014      0.3139    
       0.3229      0.3319      0.3409      0.3597      0.3789      0.3931      0.3960    
  10   0.2689      0.2497      0.2440      0.2440      0.2464      0.2503      0.2542      0.2581      0.2620      0.2742    
       0.2896      0.2986      0.3140      0.3333      0.3536      0.3779      0.3960    
  11   0.2440      0.2440      0.2440      0.2440      0.2475      0.2514      0.2553      0.2592      0.2631      0.2670    
       0.2708      0.2749      0.2992      0.3234      0.3477      0.3719      0.3960    
  12   0.2440      0.2440      0.2440      0.2447      0.2485      0.2524      0.2563      0.2602      0.2641      0.2680    
       0.2719      0.2740      0.2932      0.3175      0.3417      0.3660      0.3960    
  13   0.2440      0.2440      0.2440      0.2457      0.2496      0.2535      0.2574      0.2613      0.2652      0.2691    
       0.2730      0.2740      0.2873      0.3115      0.3358      0.3600      0.3900    
  14   0.2440      0.2440      0.2440      0.2468      0.2507      0.2546      0.2585      0.2624      0.2663      0.2702    
       0.2740      0.2740      0.2813      0.3056      0.3298      0.3541      0.3841    
  15   0.2440      0.2440      0.2440      0.2479      0.2518      0.2557      0.2595      0.2634      0.2673      0.2712    
       0.2740      0.2740      0.2754      0.2996      0.3239      0.3481      0.3781    
  16   0.2440      0.2440      0.2450      0.2489      0.2528      0.2567      0.2606      0.2645      0.2684      0.2723    
       0.2740      0.2740      0.2740      0.2936      0.3179      0.3422      0.3721    
  17   0.2440      0.2440      0.2461      0.2500      0.2539      0.2578      0.2617      0.2656      0.2695      0.2734    
       0.2740      0.2740      0.2740      0.2877      0.3119      0.3362      0.3662    
  18   0.2440      0.2440      0.2472      0.2511      0.2550      0.2589      0.2628      0.2667      0.2705      0.2740    
       0.2740      0.2740      0.2740      0.2817      0.3060      0.3302      0.3602    
  19   0.2440      0.2444      0.2482      0.2521      0.2560      0.2599      0.2638      0.2677      0.2716      0.2740    
       0.2740      0.2740      0.2740      0.2758      0.3000      0.3243      0.3543    
  20   0.2440      0.2454      0.2493      0.2532      0.2571      0.2610      0.2649      0.2688      0.2727      0.2740    
       0.2740      0.2740      0.2740      0.2740      0.2941      0.3183      0.3483    
  21   0.2440      0.2465      0.2504      0.2543      0.2582      0.2621      0.2660      0.2699      0.2738      0.2740    
       0.2740      0.2740      0.2740      0.2740      0.2881      0.3124      0.3424    
  22   0.2440      0.2476      0.2515      0.2554      0.2592      0.2631      0.2670      0.2709      0.2740      0.2740    
       0.2740      0.2740      0.2740      0.2740      0.2822      0.3064      0.3364    



              HYD. COND. ALONG ROWS FOR LAYER   3
 READING ON UNIT   14 WITH FORMAT: (FREE)              

            1           2           3           4           5           6           7           8           9          10
           11          12          13          14          15          16          17
 ........................................................................................................................
   1   1.3000E-03  1.3000E-03  1.3000E-03  1.2000E-03  1.1000E-03  9.0000E-04  7.0000E-04  5.0000E-04  4.0000E-04  3.0000E-04
       3.0000E-04  3.0000E-04  4.0000E-04  4.0000E-04  5.0000E-04  6.0000E-04  6.0000E-04
   2   1.4000E-03  1.5000E-03  1.5000E-03  1.5000E-03  1.3000E-03  1.1000E-03  8.0000E-04  5.0000E-04  3.0000E-04  3.0000E-04
       3.0000E-04  4.0000E-04  4.0000E-04  5.0000E-04  5.0000E-04  6.0000E-04  7.0000E-04
   3   1.5000E-03  1.6000E-03  1.7000E-03  1.7000E-03  1.5000E-03  1.2000E-03  9.0000E-04  5.0000E-04  2.0000E-04  3.0000E-04
       3.0000E-04  4.0000E-04  5.0000E-04  5.0000E-04  6.0000E-04  7.0000E-04  8.0000E-04
   4   1.4000E-03  1.7000E-03  1.9000E-03  1.9000E-03  1.7000E-03  1.4000E-03  1.1000E-03  7.0000E-04  5.0000E-04  5.0000E-04
       5.0000E-04  5.0000E-04  6.0000E-04  6.0000E-04  7.0000E-04  8.0000E-04  9.0000E-04
   5   1.3000E-03  1.5000E-03  2.1000E-03  2.0000E-03  1.9000E-03  1.7000E-03  1.4000E-03  1.0000E-03  8.0000E-04  7.0000E-04
       7.0000E-04  7.0000E-04  7.0000E-04  7.0000E-04  8.0000E-04  9.0000E-04  1.0000E-03
   6   9.0000E-04  1.0000E-03  1.1000E-03  1.6000E-03  1.9000E-03  1.9000E-03  1.6000E-03  1.3000E-03  1.1000E-03  1.0000E-03
       9.0000E-04  9.0000E-04  8.0000E-04  8.0000E-04  9.0000E-04  1.0000E-03  1.1000E-03
   7   6.0000E-04  5.0000E-04  5.0000E-04  1.1000E-03  1.7000E-03  1.8000E-03  1.6000E-03  1.5000E-03  1.4000E-03  1.3000E-03
       1.2000E-03  1.1000E-03  1.0000E-03  9.0000E-04  1.0000E-03  1.1000E-03  1.3000E-03
   8   5.0000E-04  4.0000E-04  4.0000E-04  6.0000E-04  1.1000E-03  1.4000E-03  1.5000E-03  1.6000E-03  1.6000E-03  1.6000E-03
       1.6000E-03  1.4000E-03  1.2000E-03  1.1000E-03  1.3000E-03  1.4000E-03  1.5000E-03
   9   4.0000E-04  3.0000E-04  3.0000E-04  2.0000E-04  6.0000E-04  1.1000E-03  1.4000E-03  1.6000E-03  1.8000E-03  1.9000E-03
       2.0000E-03  1.9000E-03  1.7000E-03  1.6000E-03  1.6000E-03  1.6000E-03  1.7000E-03
  10   4.0000E-04  3.0000E-04  3.0000E-04  4.0000E-04  6.0000E-04  1.1000E-03  1.4000E-03  1.7000E-03  2.0000E-03  2.2000E-03
       2.4000E-03  2.4000E-03  2.2000E-03  2.0000E-03  2.0000E-03  1.9000E-03  1.9000E-03
  11   5.0000E-04  4.0000E-04  5.0000E-04  6.0000E-04  8.0000E-04  1.2000E-03  1.5000E-03  1.8000E-03  2.2000E-03  2.5000E-03
       2.8000E-03  2.8000E-03  2.6000E-03  2.4000E-03  2.2000E-03  2.1000E-03  2.0000E-03
  12   6.0000E-04  6.0000E-04  6.0000E-04  8.0000E-04  1.0000E-03  1.3000E-03  1.6000E-03  1.9000E-03  2.2000E-03  2.6000E-03
       2.8000E-03  2.9000E-03  2.7000E-03  2.5000E-03  2.4000E-03  2.3000E-03  2.2000E-03
  13   7.0000E-04  7.0000E-04  8.0000E-04  1.0000E-03  1.2000E-03  1.4000E-03  1.7000E-03  2.0000E-03  2.3000E-03  2.5000E-03
       2.7000E-03  2.8000E-03  2.7000E-03  2.6000E-03  2.5000E-03  2.4000E-03  2.3000E-03
  14   8.0000E-04  9.0000E-04  1.0000E-03  1.1000E-03  1.3000E-03  1.5000E-03  1.7000E-03  2.0000E-03  2.2000E-03  2.5000E-03
       2.6000E-03  2.7000E-03  2.7000E-03  2.6000E-03  2.5000E-03  2.4000E-03  2.3000E-03
  15   9.0000E-04  1.0000E-03  1.1000E-03  1.2000E-03  1.4000E-03  1.6000E-03  1.8000E-03  2.0000E-03  2.2000E-03  2.4000E-03
       2.5000E-03  2.6000E-03  2.6000E-03  2.6000E-03  2.5000E-03  2.5000E-03  2.4000E-03
  16   1.0000E-03  1.1000E-03  1.2000E-03  1.3000E-03  1.5000E-03  1.6000E-03  1.8000E-03  2.0000E-03  2.2000E-03  2.3000E-03
       2.5000E-03  2.5000E-03  2.6000E-03  2.5000E-03  2.5000E-03  2.5000E-03  2.4000E-03
  17   1.1000E-03  1.2000E-03  1.3000E-03  1.4000E-03  1.5000E-03  1.7000E-03  1.9000E-03  2.0000E-03  2.2000E-03  2.3000E-03
       2.4000E-03  2.5000E-03  2.5000E-03  2.5000E-03  2.5000E-03  2.5000E-03  2.4000E-03
  18   1.2000E-03  1.3000E-03  1.4000E-03  1.5000E-03  1.6000E-03  1.7000E-03  1.9000E-03  2.0000E-03  2.1000E-03  2.2000E-03
       2.3000E-03  2.4000E-03  2.4000E-03  2.5000E-03  2.5000E-03  2.4000E-03  2.4000E-03
  19   1.3000E-03  1.3000E-03  1.4000E-03  1.5000E-03  1.6000E-03  1.8000E-03  1.9000E-03  2.0000E-03  2.1000E-03  2.2000E-03
       2.3000E-03  2.4000E-03  2.4000E-03  2.4000E-03  2.4000E-03  2.4000E-03  2.4000E-03
  20   1.3000E-03  1.4000E-03  1.5000E-03  1.6000E-03  1.7000E-03  1.8000E-03  1.9000E-03  2.0000E-03  2.1000E-03  2.2000E-03
       2.3000E-03  2.3000E-03  2.4000E-03  2.4000E-03  2.4000E-03  2.4000E-03  2.4000E-03
  21   1.4000E-03  1.5000E-03  1.5000E-03  1.6000E-03  1.7000E-03  1.8000E-03  1.9000E-03  2.0000E-03  2.1000E-03  2.2000E-03
       2.2000E-03  2.3000E-03  2.3000E-03  2.3000E-03  2.4000E-03  2.4000E-03  2.4000E-03
  22   1.4000E-03  1.5000E-03  1.6000E-03  1.7000E-03  1.7000E-03  1.8000E-03  1.9000E-03  2.0000E-03  2.1000E-03  2.1000E-03
       2.2000E-03  2.2000E-03  2.3000E-03  2.3000E-03  2.3000E-03  2.3000E-03  2.3000E-03

   HORIZ. ANI. (COL./ROW) =   1.00000     FOR LAYER   3



                VERTICAL HYD. COND. FOR LAYER   3
 READING ON UNIT   14 WITH FORMAT: (FREE)              

            1           2           3           4           5           6           7           8           9          10
           11          12          13          14          15          16          17
 ........................................................................................................................
   1    1.000       1.000       1.000       1.000       1.000       1.000       1.000       1.000       1.000       1.000    
        1.000       1.000       1.000       1.000       1.000       1.000       1.000    
   2   2.8000E-04  3.0000E-04  3.0000E-04  3.0000E-04  2.6000E-04  2.2000E-04  1.6000E-04  1.0000E-04  6.0000E-05  6.0000E-05
       6.0000E-05  8.0000E-05  8.0000E-05  1.0000E-04  1.0000E-04  1.2000E-04  1.4000E-04
   3   3.0000E-04  3.2000E-04  3.4000E-04  3.4000E-04  3.0000E-04  2.4000E-04  1.8000E-04  1.0000E-04  4.0000E-05  6.0000E-05
       6.0000E-05  8.0000E-05  1.0000E-04  1.0000E-04  1.2000E-04  1.4000E-04  1.6000E-04
   4   2.8000E-04  3.4000E-04  3.8000E-04  3.8000E-04  3.4000E-04  2.8000E-04  2.2000E-04  1.4000E-04  1.0000E-04  1.0000E-04
       1.0000E-04  1.0000E-04  1.2000E-04  1.2000E-04  1.4000E-04  1.6000E-04  1.8000E-04
   5   2.6000E-04  3.0000E-04  4.2000E-04  4.0000E-04  3.8000E-04  3.4000E-04  2.8000E-04  2.0000E-04  1.6000E-04  1.4000E-04
       1.4000E-04  1.4000E-04  1.4000E-04  1.4000E-04  1.6000E-04  1.8000E-04  2.0000E-04
   6   1.8000E-04  2.0000E-04  2.2000E-04  3.2000E-04  3.8000E-04  3.8000E-04  3.2000E-04  2.6000E-04  2.2000E-04  2.0000E-04
       1.8000E-04  1.8000E-04  1.6000E-04  1.6000E-04  1.8000E-04  2.0000E-04  2.2000E-04
   7   1.2000E-04  1.0000E-04  1.0000E-04  2.2000E-04  3.4000E-04  3.6000E-04  3.2000E-04  3.0000E-04  2.8000E-04  2.6000E-04
       2.4000E-04  2.2000E-04  2.0000E-04  1.8000E-04  2.0000E-04  2.2000E-04  2.6000E-04
   8   1.0000E-04  8.0000E-05  8.0000E-05  1.2000E-04  2.2000E-04  2.8000E-04  3.0000E-04  3.2000E-04  3.2000E-04  3.2000E-04
       3.2000E-04  2.8000E-04  2.4000E-04  2.2000E-04  2.6000E-04  2.8000E-04  3.0000E-04
   9   8.0000E-05  6.0000E-05  6.0000E-05  4.0000E-05  1.2000E-04  2.2000E-04  2.8000E-04  3.2000E-04  3.6000E-04  3.8000E-04
       4.0000E-04  3.8000E-04  3.4000E-04  3.2000E-04  3.2000E-04  3.2000E-04  3.4000E-04
  10   8.0000E-05  6.0000E-05  6.0000E-05  8.0000E-05  1.2000E-04  2.2000E-04  2.8000E-04  3.4000E-04  4.0000E-04  4.4000E-04
       4.8000E-04  4.8000E-04  4.4000E-04  4.0000E-04  4.0000E-04  3.8000E-04  3.8000E-04
  11   1.0000E-04  8.0000E-05  1.0000E-04  1.2000E-04  1.6000E-04  2.4000E-04  3.0000E-04  3.6000E-04  4.4000E-04  5.0000E-04
       5.6000E-04  5.6000E-04  5.2000E-04  4.8000E-04  4.4000E-04  4.2000E-04  4.0000E-04
  12   1.2000E-04  1.2000E-04  1.2000E-04  1.6000E-04  2.0000E-04  2.6000E-04  3.2000E-04  3.8000E-04  4.4000E-04  5.2000E-04
       5.6000E-04  5.8000E-04  5.4000E-04  5.0000E-04  4.8000E-04  4.6000E-04  4.4000E-04
  13   1.4000E-04  1.4000E-04  1.6000E-04  2.0000E-04  2.4000E-04  2.8000E-04  3.4000E-04  4.0000E-04  4.6000E-04  5.0000E-04
       5.4000E-04  5.6000E-04  5.4000E-04  5.2000E-04  5.0000E-04  4.8000E-04  4.6000E-04
  14   1.6000E-04  1.8000E-04  2.0000E-04  2.2000E-04  2.6000E-04  3.0000E-04  3.4000E-04  4.0000E-04  4.4000E-04  5.0000E-04
       5.2000E-04  5.4000E-04  5.4000E-04  5.2000E-04  5.0000E-04  4.8000E-04  4.6000E-04
  15   1.8000E-04  2.0000E-04  2.2000E-04  2.4000E-04  2.8000E-04  3.2000E-04  3.6000E-04  4.0000E-04  4.4000E-04  4.8000E-04
       5.0000E-04  5.2000E-04  5.2000E-04  5.2000E-04  5.0000E-04  5.0000E-04  4.8000E-04
  16   2.0000E-04  2.2000E-04  2.4000E-04  2.6000E-04  3.0000E-04  3.2000E-04  3.6000E-04  4.0000E-04  4.4000E-04  4.6000E-04
       5.0000E-04  5.0000E-04  5.2000E-04  5.0000E-04  5.0000E-04  5.0000E-04  4.8000E-04
  17   2.2000E-04  2.4000E-04  2.6000E-04  2.8000E-04  3.0000E-04  3.4000E-04  3.8000E-04  4.0000E-04  4.4000E-04  4.6000E-04
       4.8000E-04  5.0000E-04  5.0000E-04  5.0000E-04  5.0000E-04  5.0000E-04   1.000    
  18   2.4000E-04  2.6000E-04  2.8000E-04  3.0000E-04  3.2000E-04  3.4000E-04  3.8000E-04  4.0000E-04  4.2000E-04  4.4000E-04
       4.6000E-04  4.8000E-04  4.8000E-04  5.0000E-04  5.0000E-04   1.000       1.000    
  19   2.6000E-04  2.6000E-04  2.8000E-04  3.0000E-04  3.2000E-04  3.6000E-04  3.8000E-04  4.0000E-04  4.2000E-04  4.4000E-04
       4.6000E-04  4.8000E-04  4.8000E-04  4.8000E-04   1.000       1.000      4.8000E-04
  20   2.6000E-04  2.8000E-04  3.0000E-04  3.2000E-04  3.4000E-04  3.6000E-04  3.8000E-04  4.0000E-04  4.2000E-04  4.4000E-04
        1.000       1.000       1.000       1.000       1.000      4.8000E-04  4.8000E-04
  21   2.8000E-04  3.0000E-04  3.0000E-04  3.2000E-04   1.000       1.000       1.000       1.000       1.000       1.000    
        1.000      4.6000E-04  4.6000E-04  4.6000E-04  4.8000E-04  4.8000E-04  4.8000E-04
  22    1.000       1.000       1.000       1.000       1.000      3.6000E-04  3.8000E-04  4.0000E-04  4.2000E-04  4.2000E-04
       4.4000E-04  4.4000E-04  4.6000E-04  4.6000E-04  4.6000E-04  4.6000E-04  4.6000E-04

         SPECIFIC STORAGE =  1.000000E-05 FOR LAYER   3

           SPECIFIC YIELD =  0.200000     FOR LAYER   3



                   WETDRY PARAMETER FOR LAYER   3
 READING ON UNIT   14 WITH FORMAT: (FREE)              

            1           2           3           4           5           6           7           8           9          10
           11          12          13          14          15          16          17
 ........................................................................................................................
   1   0.1520      0.1520      0.1518      0.1515      0.1512      0.1510      0.1507      0.1504      0.1503      0.1503    
       0.1503      0.1526      0.1551      0.1575      0.1599      0.1623      0.1653    
   2   0.1520      0.1520      0.1519      0.1516      0.1513      0.1511      0.1508      0.1505      0.1503      0.1505    
       0.1529      0.1554      0.1578      0.1602      0.1626      0.1651      0.1680    
   3   0.1520      0.1520      0.1520      0.1517      0.1514      0.1512      0.1509      0.1506      0.1490      0.1527    
       0.1551      0.1575      0.1600      0.1624      0.1648      0.1672      0.1702    
   4   0.1520      0.1520      0.1520      0.1518      0.1515      0.1502      0.1454      0.1411      0.1551      0.1691    
       0.1573      0.1597      0.1621      0.1646      0.1670      0.1694      0.1724    
   5   0.1520      0.1520      0.1520      0.1467      0.1419      0.1371      0.1331      0.1471      0.1612      0.1752    
       0.1893      0.1619      0.1643      0.1667      0.1692      0.1716      0.1746    
   6   0.1520      0.1520      0.1520      0.1441      0.1311      0.1251      0.1391      0.1532      0.1672      0.1813    
       0.1953      0.2094      0.1665      0.1689      0.1713      0.1738      0.1768    
   7   0.1520      0.1535      0.1583      0.1598      0.1456      0.1410      0.1464      0.1600      0.1737      0.1874    
       0.2014      0.2154      0.2295      0.1711      0.1735      0.1759      0.1789    
   8   0.1580      0.1628      0.1677      0.1725      0.1649      0.1663      0.1679      0.1694      0.1820      0.1957    
       0.2094      0.2231      0.2368      0.2422      0.1757      0.1781      0.1811    
   9   0.1673      0.1722      0.1770      0.1819      0.1857      0.1916      0.1932      0.1947      0.1963      0.2040    
       0.2177      0.2314      0.2450      0.2307      0.2149      0.1848      0.1830    
  10   0.1767      0.1815      0.1830      0.1830      0.1879      0.1958      0.2037      0.2117      0.2196      0.2232    
       0.2260      0.2396      0.2348      0.2191      0.2042      0.1921      0.1830    
  11   0.1830      0.1830      0.1830      0.1830      0.1901      0.1980      0.2059      0.2138      0.2217      0.2297    
       0.2376      0.2435      0.2314      0.2193      0.2072      0.1950      0.1830    
  12   0.1830      0.1830      0.1830      0.1843      0.1922      0.2002      0.2081      0.2160      0.2239      0.2318    
       0.2398      0.2440      0.2344      0.2223      0.2101      0.1980      0.1830    
  13   0.1830      0.1830      0.1830      0.1865      0.1944      0.2023      0.2103      0.2182      0.2261      0.2340    
       0.2419      0.2440      0.2374      0.2252      0.2131      0.2010      0.1860    
  14   0.1830      0.1830      0.1830      0.1887      0.1966      0.2045      0.2124      0.2204      0.2283      0.2362    
       0.2440      0.2440      0.2403      0.2282      0.2161      0.2040      0.1890    
  15   0.1830      0.1830      0.1830      0.1909      0.1988      0.2067      0.2146      0.2225      0.2305      0.2384    
       0.2440      0.2440      0.2433      0.2312      0.2191      0.2069      0.1920    
  16   0.1830      0.1830      0.1851      0.1930      0.2009      0.2089      0.2168      0.2247      0.2326      0.2405    
       0.2440      0.2440      0.2440      0.2342      0.2220      0.2099      0.1949    
  17   0.1830      0.1830      0.1873      0.1952      0.2031      0.2110      0.2190      0.2269      0.2348      0.2427    
       0.2440      0.2440      0.2440      0.2372      0.2250      0.2129      0.1979    
  18   0.1830      0.1830      0.1895      0.1974      0.2053      0.2132      0.2211      0.2291      0.2370      0.2440    
       0.2440      0.2440      0.2440      0.2401      0.2280      0.2159      0.2009    
  19   0.1830      0.1837      0.1916      0.1996      0.2075      0.2154      0.2233      0.2312      0.2392      0.2440    
       0.2440      0.2440      0.2440      0.2431      0.2310      0.2189      0.2039    
  20   0.1830      0.1859      0.1938      0.2017      0.2097      0.2176      0.2255      0.2334      0.2413      0.2440    
       0.2440      0.2440      0.2440      0.2440      0.2340      0.2218      0.2068    
  21   0.1830      0.1881      0.1960      0.2039      0.2118      0.2197      0.2277      0.2356      0.2435      0.2440    
       0.2440      0.2440      0.2440      0.2440      0.2369      0.2248      0.2098    
  22   0.1830      0.1902      0.1982      0.2061      0.2140      0.2219      0.2298      0.2378      0.2440      0.2440    
       0.2440      0.2440      0.2440      0.2440      0.2399      0.2278      0.2128    



              HYD. COND. ALONG ROWS FOR LAYER   4
 READING ON UNIT   14 WITH FORMAT: (FREE)              

            1           2           3           4           5           6           7           8           9          10
           11          12          13          14          15          16          17
 ........................................................................................................................
   1   3.2000E-03  3.2000E-03  3.2000E-03  3.2000E-03  3.2000E-03  3.1000E-03  3.1000E-03  3.0000E-03  3.0000E-03  3.0000E-03
       3.0000E-03  3.1000E-03  3.1000E-03  3.2000E-03  3.2000E-03  3.2000E-03  3.3000E-03
   2   3.3000E-03  3.3000E-03  3.3000E-03  3.3000E-03  3.2000E-03  3.2000E-03  3.1000E-03  3.0000E-03  3.0000E-03  3.0000E-03
       3.1000E-03  3.1000E-03  3.2000E-03  3.2000E-03  3.3000E-03  3.3000E-03  3.3000E-03
   3   3.3000E-03  3.3000E-03  3.4000E-03  3.3000E-03  3.3000E-03  3.2000E-03  3.1000E-03  3.0000E-03  2.9000E-03  3.0000E-03
       3.1000E-03  3.2000E-03  3.2000E-03  3.3000E-03  3.3000E-03  3.3000E-03  3.4000E-03
   4   3.3000E-03  3.3000E-03  3.4000E-03  3.4000E-03  3.3000E-03  3.3000E-03  3.2000E-03  3.1000E-03  3.0000E-03  3.1000E-03
       3.2000E-03  3.2000E-03  3.3000E-03  3.3000E-03  3.4000E-03  3.4000E-03  3.4000E-03
   5   3.2000E-03  3.3000E-03  3.5000E-03  3.4000E-03  3.4000E-03  3.3000E-03  3.3000E-03  3.2000E-03  3.2000E-03  3.2000E-03
       3.3000E-03  3.3000E-03  3.4000E-03  3.4000E-03  3.4000E-03  3.5000E-03  3.5000E-03
   6   3.1000E-03  3.1000E-03  3.2000E-03  3.3000E-03  3.4000E-03  3.4000E-03  3.3000E-03  3.3000E-03  3.3000E-03  3.3000E-03
       3.4000E-03  3.4000E-03  3.5000E-03  3.5000E-03  3.5000E-03  3.5000E-03  3.5000E-03
   7   3.0000E-03  3.0000E-03  3.0000E-03  3.1000E-03  3.3000E-03  3.3000E-03  3.3000E-03  3.4000E-03  3.4000E-03  3.5000E-03
       3.5000E-03  3.6000E-03  3.6000E-03  3.6000E-03  3.6000E-03  3.6000E-03  3.6000E-03
   8   2.9000E-03  2.9000E-03  2.9000E-03  3.0000E-03  3.1000E-03  3.2000E-03  3.3000E-03  3.4000E-03  3.5000E-03  3.6000E-03
       3.6000E-03  3.7000E-03  3.7000E-03  3.7000E-03  3.7000E-03  3.6000E-03  3.6000E-03
   9   2.9000E-03  2.9000E-03  2.8000E-03  2.8000E-03  3.0000E-03  3.2000E-03  3.3000E-03  3.4000E-03  3.6000E-03  3.7000E-03
       3.9000E-03  3.9000E-03  3.9000E-03  3.9000E-03  3.7000E-03  3.7000E-03  3.7000E-03
  10   2.9000E-03  2.9000E-03  2.9000E-03  2.9000E-03  3.0000E-03  3.2000E-03  3.3000E-03  3.5000E-03  3.6000E-03  3.9000E-03
       4.0000E-03  4.0000E-03  4.0000E-03  4.0000E-03  3.9000E-03  3.7000E-03  3.7000E-03
  11   2.9000E-03  2.9000E-03  2.9000E-03  3.0000E-03  3.1000E-03  3.2000E-03  3.4000E-03  3.5000E-03  3.7000E-03  4.0000E-03
       4.1000E-03  4.2000E-03  4.1000E-03  4.0000E-03  3.9000E-03  3.9000E-03  3.7000E-03
  12   3.0000E-03  3.0000E-03  3.0000E-03  3.1000E-03  3.1000E-03  3.3000E-03  3.4000E-03  3.6000E-03  3.7000E-03  4.0000E-03
       4.1000E-03  4.1000E-03  4.1000E-03  4.0000E-03  4.0000E-03  3.9000E-03  3.9000E-03
  13   3.0000E-03  3.0000E-03  3.1000E-03  3.1000E-03  3.2000E-03  3.3000E-03  3.4000E-03  3.6000E-03  3.7000E-03  3.9000E-03
       4.0000E-03  4.1000E-03  4.1000E-03  4.0000E-03  4.0000E-03  3.9000E-03  3.9000E-03
  14   3.1000E-03  3.1000E-03  3.1000E-03  3.2000E-03  3.3000E-03  3.4000E-03  3.5000E-03  3.6000E-03  3.7000E-03  3.9000E-03
       4.0000E-03  4.0000E-03  4.0000E-03  4.0000E-03  4.0000E-03  4.0000E-03  3.9000E-03
  15   3.1000E-03  3.1000E-03  3.2000E-03  3.2000E-03  3.3000E-03  3.4000E-03  3.5000E-03  3.6000E-03  3.7000E-03  3.9000E-03
       3.9000E-03  4.0000E-03  4.0000E-03  4.0000E-03  4.0000E-03  4.0000E-03  3.9000E-03
  16   3.2000E-03  3.2000E-03  3.2000E-03  3.3000E-03  3.4000E-03  3.4000E-03  3.5000E-03  3.6000E-03  3.7000E-03  3.7000E-03
       3.9000E-03  3.9000E-03  4.0000E-03  4.0000E-03  4.0000E-03  3.9000E-03  3.9000E-03
  17   3.2000E-03  3.2000E-03  3.3000E-03  3.3000E-03  3.4000E-03  3.4000E-03  3.5000E-03  3.6000E-03  3.7000E-03  3.7000E-03
       3.9000E-03  3.9000E-03  3.9000E-03  3.9000E-03  3.9000E-03  3.9000E-03  3.9000E-03
  18   3.2000E-03  3.3000E-03  3.3000E-03  3.4000E-03  3.4000E-03  3.5000E-03  3.5000E-03  3.6000E-03  3.6000E-03  3.7000E-03
       3.7000E-03  3.9000E-03  3.9000E-03  3.9000E-03  3.9000E-03  3.9000E-03  3.9000E-03
  19   3.3000E-03  3.3000E-03  3.3000E-03  3.4000E-03  3.4000E-03  3.5000E-03  3.5000E-03  3.6000E-03  3.6000E-03  3.7000E-03
       3.7000E-03  3.9000E-03  3.9000E-03  3.9000E-03  3.9000E-03  3.9000E-03  3.9000E-03
  20   3.3000E-03  3.3000E-03  3.4000E-03  3.4000E-03  3.4000E-03  3.5000E-03  3.5000E-03  3.6000E-03  3.6000E-03  3.7000E-03
       3.7000E-03  3.7000E-03  3.9000E-03  3.9000E-03  3.9000E-03  3.9000E-03  3.9000E-03
  21   3.3000E-03  3.3000E-03  3.4000E-03  3.4000E-03  3.5000E-03  3.5000E-03  3.5000E-03  3.6000E-03  3.6000E-03  3.7000E-03
       3.7000E-03  3.7000E-03  3.7000E-03  3.9000E-03  3.9000E-03  3.9000E-03  3.9000E-03
  22   3.3000E-03  3.4000E-03  3.4000E-03  3.4000E-03  3.5000E-03  3.5000E-03  3.5000E-03  3.6000E-03  3.6000E-03  3.6000E-03
       3.7000E-03  3.7000E-03  3.7000E-03  3.7000E-03  3.9000E-03  3.9000E-03  3.9000E-03

   HORIZ. ANI. (COL./ROW) =   1.00000     FOR LAYER   4



                VERTICAL HYD. COND. FOR LAYER   4
 READING ON UNIT   14 WITH FORMAT: (FREE)              

            1           2           3           4           5           6           7           8           9          10
           11          12          13          14          15          16          17
 ........................................................................................................................
   1   6.4000E-04  6.4000E-04  6.4000E-04  6.4000E-04  6.4000E-04  6.2000E-04  6.2000E-04  6.0000E-04  6.0000E-04  6.0000E-04
       6.0000E-04  6.2000E-04  6.2000E-04  6.4000E-04  6.4000E-04  6.4000E-04  6.6000E-04
   2   6.6000E-04  6.6000E-04  6.6000E-04  6.6000E-04  6.4000E-04  6.4000E-04  6.2000E-04  6.0000E-04  6.0000E-04  6.0000E-04
       6.2000E-04  6.2000E-04  6.4000E-04  6.4000E-04  6.6000E-04  6.6000E-04  6.6000E-04
   3   6.6000E-04  6.6000E-04  6.8000E-04  6.6000E-04  6.6000E-04  6.4000E-04  6.2000E-04  6.0000E-04  5.8000E-04  6.0000E-04
       6.2000E-04  6.4000E-04  6.4000E-04  6.6000E-04  6.6000E-04  6.6000E-04  6.8000E-04
   4   6.6000E-04  6.6000E-04  6.8000E-04  6.8000E-04  6.6000E-04  6.6000E-04  6.4000E-04  6.2000E-04  6.0000E-04  6.2000E-04
       6.4000E-04  6.4000E-04  6.6000E-04  6.6000E-04  6.8000E-04  6.8000E-04  6.8000E-04
   5   6.4000E-04  6.6000E-04  7.0000E-04  6.8000E-04  6.8000E-04  6.6000E-04  6.6000E-04  6.4000E-04  6.4000E-04  6.4000E-04
       6.6000E-04  6.6000E-04  6.8000E-04  6.8000E-04  6.8000E-04  7.0000E-04  7.0000E-04
   6   6.2000E-04  6.2000E-04  6.4000E-04  6.6000E-04  6.8000E-04  6.8000E-04  6.6000E-04  6.6000E-04  6.6000E-04  6.6000E-04
       6.8000E-04  6.8000E-04  7.0000E-04  7.0000E-04  7.0000E-04  7.0000E-04  7.0000E-04
   7   6.0000E-04  6.0000E-04  6.0000E-04  6.2000E-04  6.6000E-04  6.6000E-04  6.6000E-04  6.8000E-04  6.8000E-04  7.0000E-04
       7.0000E-04  7.2000E-04  7.2000E-04  7.2000E-04  7.2000E-04  7.2000E-04  7.2000E-04
   8   5.8000E-04  5.8000E-04  5.8000E-04  6.0000E-04  6.2000E-04  6.4000E-04  6.6000E-04  6.8000E-04  7.0000E-04  7.2000E-04
       7.2000E-04  7.4000E-04  7.4000E-04  7.4000E-04  7.4000E-04  7.2000E-04  7.2000E-04
   9   5.8000E-04  5.8000E-04  5.6000E-04  5.6000E-04  6.0000E-04  6.4000E-04  6.6000E-04  6.8000E-04  7.2000E-04  7.4000E-04
       7.8000E-04  7.8000E-04  7.8000E-04  7.8000E-04  7.4000E-04  7.4000E-04  7.4000E-04
  10   5.8000E-04  5.8000E-04  5.8000E-04  5.8000E-04  6.0000E-04  6.4000E-04  6.6000E-04  7.0000E-04  7.2000E-04  7.8000E-04
       8.0000E-04  8.0000E-04  8.0000E-04  8.0000E-04  7.8000E-04  7.4000E-04  7.4000E-04
  11   5.8000E-04  5.8000E-04  5.8000E-04  6.0000E-04  6.2000E-04  6.4000E-04  6.8000E-04  7.0000E-04  7.4000E-04  8.0000E-04
       8.2000E-04  8.4000E-04  8.2000E-04  8.0000E-04  7.8000E-04  7.8000E-04  7.4000E-04
  12   6.0000E-04  6.0000E-04  6.0000E-04  6.2000E-04  6.2000E-04  6.6000E-04  6.8000E-04  7.2000E-04  7.4000E-04  8.0000E-04
       8.2000E-04  8.2000E-04  8.2000E-04  8.0000E-04  8.0000E-04  7.8000E-04  7.8000E-04
  13   6.0000E-04  6.0000E-04  6.2000E-04  6.2000E-04  6.4000E-04  6.6000E-04  6.8000E-04  7.2000E-04  7.4000E-04  7.8000E-04
       8.0000E-04  8.2000E-04  8.2000E-04  8.0000E-04  8.0000E-04  7.8000E-04  7.8000E-04
  14   6.2000E-04  6.2000E-04  6.2000E-04  6.4000E-04  6.6000E-04  6.8000E-04  7.0000E-04  7.2000E-04  7.4000E-04  7.8000E-04
       8.0000E-04  8.0000E-04  8.0000E-04  8.0000E-04  8.0000E-04  8.0000E-04  7.8000E-04
  15   6.2000E-04  6.2000E-04  6.4000E-04  6.4000E-04  6.6000E-04  6.8000E-04  7.0000E-04  7.2000E-04  7.4000E-04  7.8000E-04
       7.8000E-04  8.0000E-04  8.0000E-04  8.0000E-04  8.0000E-04  8.0000E-04  7.8000E-04
  16   6.4000E-04  6.4000E-04  6.4000E-04  6.6000E-04  6.8000E-04  6.8000E-04  7.0000E-04  7.2000E-04  7.4000E-04  7.4000E-04
       7.8000E-04  7.8000E-04  8.0000E-04  8.0000E-04  8.0000E-04  7.8000E-04  7.8000E-04
  17   6.4000E-04  6.4000E-04  6.6000E-04  6.6000E-04  6.8000E-04  6.8000E-04  7.0000E-04  7.2000E-04  7.4000E-04  7.4000E-04
       7.8000E-04  7.8000E-04  7.8000E-04  7.8000E-04  7.8000E-04  7.8000E-04  7.8000E-04
  18   6.4000E-04  6.6000E-04  6.6000E-04  6.8000E-04  6.8000E-04  7.0000E-04  7.0000E-04  7.2000E-04  7.2000E-04  7.4000E-04
       7.4000E-04  7.8000E-04  7.8000E-04  7.8000E-04  7.8000E-04  7.8000E-04  7.8000E-04
  19   6.6000E-04  6.6000E-04  6.6000E-04  6.8000E-04  6.8000E-04  7.0000E-04  7.0000E-04  7.2000E-04  7.2000E-04  7.4000E-04
       7.4000E-04  7.8000E-04  7.8000E-04  7.8000E-04  7.8000E-04  7.8000E-04  7.8000E-04
  20   6.6000E-04  6.6000E-04  6.8000E-04  6.8000E-04  6.8000E-04  7.0000E-04  7.0000E-04  7.2000E-04  7.2000E-04  7.4000E-04
       7.4000E-04  7.4000E-04  7.8000E-04  7.8000E-04  7.8000E-04  7.8000E-04  7.8000E-04
  21   6.6000E-04  6.6000E-04  6.8000E-04  6.8000E-04  7.0000E-04  7.0000E-04  7.0000E-04  7.2000E-04  7.2000E-04  7.4000E-04
       7.4000E-04  7.4000E-04  7.4000E-04  7.8000E-04  7.8000E-04  7.8000E-04  7.8000E-04
  22   6.6000E-04  6.8000E-04  6.8000E-04  6.8000E-04  7.0000E-04  7.0000E-04  7.0000E-04  7.2000E-04  7.2000E-04  7.2000E-04
       7.4000E-04  7.4000E-04  7.4000E-04  7.4000E-04  7.8000E-04  7.8000E-04  7.8000E-04

         SPECIFIC STORAGE =  1.000000E-05 FOR LAYER   4

           SPECIFIC YIELD =  0.200000     FOR LAYER   4



                   WETDRY PARAMETER FOR LAYER   4
 READING ON UNIT   14 WITH FORMAT: (FREE)              

            1           2           3           4           5           6           7           8           9          10
           11          12          13          14          15          16          17
 ........................................................................................................................
   1   0.1220      0.1220      0.1258      0.1302      0.1347      0.1391      0.1436      0.1480      0.1500      0.1500    
       0.1500      0.1567      0.1637      0.1707      0.1776      0.1846      0.1932    
   2   0.1220      0.1220      0.1238      0.1283      0.1327      0.1372      0.1416      0.1461      0.1500      0.1506    
       0.1576      0.1646      0.1715      0.1785      0.1854      0.1924      0.2010    
   3   0.1220      0.1220      0.1223      0.1268      0.1312      0.1357      0.1401      0.1446      0.1487      0.1569    
       0.1639      0.1708      0.1778      0.1847      0.1917      0.1987      0.2073    
   4   0.1220      0.1220      0.1220      0.1252      0.1297      0.1339      0.1372      0.1406      0.1445      0.1484    
       0.1701      0.1771      0.1840      0.1910      0.1980      0.2049      0.2135    
   5   0.1336      0.1310      0.1284      0.1224      0.1258      0.1291      0.1325      0.1364      0.1403      0.1443    
       0.1482      0.1833      0.1903      0.1973      0.2042      0.2112      0.2198    
   6   0.1520      0.1520      0.1501      0.1404      0.1261      0.1244      0.1283      0.1323      0.1362      0.1401    
       0.1440      0.1479      0.1965      0.2035      0.2105      0.2174      0.2260    
   7   0.1520      0.1649      0.2078      0.2398      0.2198      0.1720      0.1278      0.1306      0.1334      0.1362    
       0.1399      0.1438      0.1477      0.2098      0.2167      0.2237      0.2323    
   8   0.2047      0.2476      0.2906      0.3335      0.3352      0.2703      0.2050      0.1398      0.1362      0.1390    
       0.1418      0.1446      0.1474      0.1559      0.2230      0.2299      0.2385    
   9   0.2874      0.3304      0.3733      0.4162      0.4138      0.3686      0.3033      0.2381      0.1728      0.1419    
       0.1447      0.1474      0.1502      0.1728      0.1964      0.2323      0.2440    
  10   0.3702      0.4131      0.4260      0.4260      0.4040      0.3685      0.3329      0.2973      0.2617      0.2058    
       0.1475      0.1503      0.1662      0.1897      0.2121      0.2304      0.2440    
  11   0.4260      0.4260      0.4260      0.4260      0.3943      0.3587      0.3231      0.2875      0.2520      0.2164    
       0.1808      0.1527      0.1710      0.1893      0.2076      0.2259      0.2440    
  12   0.4260      0.4260      0.4260      0.4201      0.3845      0.3489      0.3133      0.2778      0.2422      0.2066    
       0.1710      0.1520      0.1665      0.1848      0.2031      0.2214      0.2440    
  13   0.4260      0.4260      0.4260      0.4103      0.3747      0.3391      0.3036      0.2680      0.2324      0.1968    
       0.1613      0.1520      0.1620      0.1803      0.1986      0.2169      0.2395    
  14   0.4260      0.4260      0.4260      0.4005      0.3649      0.3294      0.2938      0.2582      0.2226      0.1871    
       0.1520      0.1520      0.1575      0.1758      0.1941      0.2124      0.2350    
  15   0.4260      0.4260      0.4260      0.3907      0.3552      0.3196      0.2840      0.2484      0.2129      0.1773    
       0.1520      0.1520      0.1530      0.1713      0.1896      0.2079      0.2305    
  16   0.4260      0.4260      0.4165      0.3810      0.3454      0.3098      0.2742      0.2387      0.2031      0.1675    
       0.1520      0.1520      0.1520      0.1668      0.1851      0.2034      0.2260    
  17   0.4260      0.4260      0.4068      0.3712      0.3356      0.3000      0.2645      0.2289      0.1933      0.1577    
       0.1520      0.1520      0.1520      0.1623      0.1806      0.1989      0.2215    
  18   0.4260      0.4260      0.3970      0.3614      0.3258      0.2903      0.2547      0.2191      0.1835      0.1520    
       0.1520      0.1520      0.1520      0.1578      0.1761      0.1944      0.2170    
  19   0.4260      0.4228      0.3872      0.3516      0.3161      0.2805      0.2449      0.2093      0.1738      0.1520    
       0.1520      0.1520      0.1520      0.1533      0.1716      0.1899      0.2125    
  20   0.4260      0.4130      0.3774      0.3419      0.3063      0.2707      0.2351      0.1996      0.1640      0.1520    
       0.1520      0.1520      0.1520      0.1520      0.1671      0.1854      0.2080    
  21   0.4260      0.4032      0.3677      0.3321      0.2965      0.2609      0.2254      0.1898      0.1542      0.1520    
       0.1520      0.1520      0.1520      0.1520      0.1626      0.1809      0.2035    
  22   0.4260      0.3935      0.3579      0.3223      0.2867      0.2512      0.2156      0.1800      0.1520      0.1520    
       0.1520      0.1520      0.1520      0.1520      0.1582      0.1764      0.1991    



              HYD. COND. ALONG ROWS FOR LAYER   5
 READING ON UNIT   14 WITH FORMAT: (FREE)              

            1           2           3           4           5           6           7           8           9          10
           11          12          13          14          15          16          17
 ........................................................................................................................
   1   1.4100E-03  1.4700E-03  1.5300E-03  1.6100E-03  1.7000E-03  1.8000E-03  1.8900E-03  1.9900E-03  2.0900E-03  2.2000E-03
       2.3200E-03  2.4300E-03  2.5400E-03  2.6400E-03  2.7200E-03  2.7800E-03  2.8600E-03
   2   1.3200E-03  1.3700E-03  1.4300E-03  1.5300E-03  1.6300E-03  1.7400E-03  1.8300E-03  1.9200E-03  2.0200E-03  2.1500E-03
       2.2900E-03  2.4300E-03  2.5600E-03  2.6700E-03  2.7600E-03  2.8200E-03  2.8900E-03
   3   1.2700E-03  1.3000E-03  1.3600E-03  1.4700E-03  1.6000E-03  1.7200E-03  1.8100E-03  1.8800E-03  1.9700E-03  2.1200E-03
       2.2800E-03  2.4300E-03  2.5700E-03  2.6900E-03  2.7800E-03  2.8500E-03  2.9100E-03
   4   1.2300E-03  1.2300E-03  1.2600E-03  1.4200E-03  1.6100E-03  1.7300E-03  1.8100E-03  1.8600E-03  1.9500E-03  2.0900E-03
       2.2500E-03  2.4300E-03  2.5900E-03  2.7200E-03  2.8200E-03  2.8800E-03  2.9300E-03
   5   1.2300E-03  1.2500E-03  1.1500E-03  1.4400E-03  1.6800E-03  1.7800E-03  1.8100E-03  1.8400E-03  1.9100E-03  2.0400E-03
       2.2100E-03  2.4100E-03  2.6000E-03  2.7500E-03  2.8500E-03  2.9000E-03  2.9300E-03
   6   1.2600E-03  1.4000E-03  1.5800E-03  1.6500E-03  1.8200E-03  1.8200E-03  1.7600E-03  1.7500E-03  1.8100E-03  1.9300E-03
       2.1200E-03  2.3600E-03  2.6000E-03  2.7800E-03  2.8700E-03  2.9100E-03  2.9200E-03
   7   1.2200E-03  1.3600E-03  1.5200E-03  1.5300E-03  1.6100E-03  1.6700E-03  1.5800E-03  1.5600E-03  1.6200E-03  1.7400E-03
       1.9600E-03  2.2500E-03  2.5900E-03  2.8100E-03  2.8700E-03  2.8900E-03  2.8900E-03
   8   1.0200E-03  1.1600E-03  1.2000E-03  1.1700E-03  1.2000E-03  1.2800E-03  1.2800E-03  1.2900E-03  1.3400E-03  1.4600E-03
       1.6700E-03  2.0100E-03  2.4600E-03  2.7500E-03  2.7700E-03  2.8000E-03  2.8100E-03
   9   8.7000E-04  8.7000E-04  8.1000E-04  6.4000E-04  7.3000E-04  8.7000E-04  9.4000E-04  9.7000E-04  1.0100E-03  1.0900E-03
       1.2600E-03  1.5800E-03  2.0000E-03  2.3400E-03  2.5300E-03  2.6500E-03  2.7000E-03
  10   6.9000E-04  6.5000E-04  5.6000E-04  4.6000E-04  4.8000E-04  5.8000E-04  6.4000E-04  6.7000E-04  6.8000E-04  6.9000E-04
       7.6000E-04  1.0400E-03  1.4900E-03  1.8900E-03  2.2000E-03  2.4400E-03  2.5300E-03
  11   5.5000E-04  4.9000E-04  4.2000E-04  3.7000E-04  3.6000E-04  3.9000E-04  4.2000E-04  4.3000E-04  4.1000E-04  3.6000E-04
       2.8000E-04  5.3000E-04  1.0600E-03  1.5100E-03  1.8600E-03  2.1200E-03  2.3000E-03
  12   4.3000E-04  3.8000E-04  3.3000E-04  2.9000E-04  2.7000E-04  2.7000E-04  2.8000E-04  2.7000E-04  2.4000E-04  2.1000E-04
       2.1000E-04  4.2000E-04  8.3000E-04  1.2300E-03  1.5700E-03  1.8300E-03  2.0700E-03
  13   3.5000E-04  3.1000E-04  2.6000E-04  2.3000E-04  2.0000E-04  1.9000E-04  1.9000E-04  1.8000E-04  1.7000E-04  1.8000E-04
       2.5000E-04  4.4000E-04  7.3000E-04  1.0500E-03  1.3500E-03  1.6000E-03  1.8600E-03
  14   2.8000E-04  2.5000E-04  2.1000E-04  1.8000E-04  1.6000E-04  1.5000E-04  1.4000E-04  1.4000E-04  1.5000E-04  1.9000E-04
       2.9000E-04  4.5000E-04  6.8000E-04  9.4000E-04  1.1900E-03  1.4200E-03  1.6800E-03
  15   2.3000E-04  2.0000E-04  1.7000E-04  1.5000E-04  1.3000E-04  1.2000E-04  1.2000E-04  1.3000E-04  1.6000E-04  2.2000E-04
       3.2000E-04  4.6000E-04  6.5000E-04  8.7000E-04  1.0800E-03  1.2800E-03  1.5300E-03
  16   2.0000E-04  1.7000E-04  1.5000E-04  1.3000E-04  1.2000E-04  1.1000E-04  1.2000E-04  1.4000E-04  1.8000E-04  2.5000E-04
       3.4000E-04  4.7000E-04  6.3000E-04  8.1000E-04  1.0000E-03  1.1800E-03  1.4100E-03
  17   1.7000E-04  1.5000E-04  1.3000E-04  1.2000E-04  1.1000E-04  1.2000E-04  1.3000E-04  1.6000E-04  2.0000E-04  2.7000E-04
       3.6000E-04  4.8000E-04  6.2000E-04  7.8000E-04  9.4000E-04  1.0900E-03  1.3100E-03
  18   1.5000E-04  1.4000E-04  1.2000E-04  1.2000E-04  1.2000E-04  1.2000E-04  1.4000E-04  1.8000E-04  2.2000E-04  2.9000E-04
       3.8000E-04  4.9000E-04  6.1000E-04  7.5000E-04  8.9000E-04  1.0300E-03  1.2300E-03
  19   1.4000E-04  1.3000E-04  1.2000E-04  1.2000E-04  1.2000E-04  1.4000E-04  1.6000E-04  2.0000E-04  2.5000E-04  3.1000E-04
       3.9000E-04  4.9000E-04  6.0000E-04  7.2000E-04  8.5000E-04  9.8000E-04  1.1600E-03
  20   1.3000E-04  1.3000E-04  1.2000E-04  1.3000E-04  1.3000E-04  1.5000E-04  1.8000E-04  2.2000E-04  2.7000E-04  3.3000E-04
       4.1000E-04  5.0000E-04  6.0000E-04  7.1000E-04  8.2000E-04  9.3000E-04  1.1000E-03
  21   1.3000E-04  1.3000E-04  1.3000E-04  1.3000E-04  1.5000E-04  1.7000E-04  2.0000E-04  2.3000E-04  2.8000E-04  3.5000E-04
       4.2000E-04  5.0000E-04  5.9000E-04  6.9000E-04  7.9000E-04  9.0000E-04  1.0500E-03
  22   1.3000E-04  1.3000E-04  1.4000E-04  1.5000E-04  1.6000E-04  1.8000E-04  2.1000E-04  2.5000E-04  3.0000E-04  3.6000E-04
       4.3000E-04  5.0000E-04  5.9000E-04  6.8000E-04  7.7000E-04  8.7000E-04  1.0100E-03

   HORIZ. ANI. (COL./ROW) =   1.00000     FOR LAYER   5



                VERTICAL HYD. COND. FOR LAYER   5
 READING ON UNIT   14 WITH FORMAT: (FREE)              

            1           2           3           4           5           6           7           8           9          10
           11          12          13          14          15          16          17
 ........................................................................................................................
   1   2.8200E-04  2.9400E-04  3.0600E-04  3.2200E-04  3.4000E-04  3.6000E-04  3.7800E-04  3.9800E-04  4.1800E-04  4.4000E-04
       4.6400E-04  4.8600E-04  5.0800E-04  5.2800E-04  5.4400E-04  5.5600E-04  5.7200E-04
   2   2.6400E-04  2.7400E-04  2.8600E-04  3.0600E-04  3.2600E-04  3.4800E-04  3.6600E-04  3.8400E-04  4.0400E-04  4.3000E-04
       4.5800E-04  4.8600E-04  5.1200E-04  5.3400E-04  5.5200E-04  5.6400E-04  5.7800E-04
   3   2.5400E-04  2.6000E-04  2.7200E-04  2.9400E-04  3.2000E-04  3.4400E-04  3.6200E-04  3.7600E-04  3.9400E-04  4.2400E-04
       4.5600E-04  4.8600E-04  5.1400E-04  5.3800E-04  5.5600E-04  5.7000E-04  5.8200E-04
   4   2.4600E-04  2.4600E-04  2.5200E-04  2.8400E-04  3.2200E-04  3.4600E-04  3.6200E-04  3.7200E-04  3.9000E-04  4.1800E-04
       4.5000E-04  4.8600E-04  5.1800E-04  5.4400E-04  5.6400E-04  5.7600E-04  5.8600E-04
   5   2.4600E-04  2.5000E-04  2.3000E-04  2.8800E-04  3.3600E-04  3.5600E-04  3.6200E-04  3.6800E-04  3.8200E-04  4.0800E-04
       4.4200E-04  4.8200E-04  5.2000E-04  5.5000E-04  5.7000E-04  5.8000E-04  5.8600E-04
   6   2.5200E-04  2.8000E-04  3.1600E-04  3.3000E-04  3.6400E-04  3.6400E-04  3.5200E-04  3.5000E-04  3.6200E-04  3.8600E-04
       4.2400E-04  4.7200E-04  5.2000E-04  5.5600E-04  5.7400E-04  5.8200E-04  5.8400E-04
   7   2.4400E-04  2.7200E-04  3.0400E-04  3.0600E-04  3.2200E-04  3.3400E-04  3.1600E-04  3.1200E-04  3.2400E-04  3.4800E-04
       3.9200E-04  4.5000E-04  5.1800E-04  5.6200E-04  5.7400E-04  5.7800E-04  5.7800E-04
   8   2.0400E-04  2.3200E-04  2.4000E-04  2.3400E-04  2.4000E-04  2.5600E-04  2.5600E-04  2.5800E-04  2.6800E-04  2.9200E-04
       3.3400E-04  4.0200E-04  4.9200E-04  5.5000E-04  5.5400E-04  5.6000E-04  5.6200E-04
   9   1.7400E-04  1.7400E-04  1.6200E-04  1.2800E-04  1.4600E-04  1.7400E-04  1.8800E-04  1.9400E-04  2.0200E-04  2.1800E-04
       2.5200E-04  3.1600E-04  4.0000E-04  4.6800E-04  5.0600E-04  5.3000E-04  5.4000E-04
  10   1.3800E-04  1.3000E-04  1.1200E-04  9.2000E-05  9.6000E-05  1.1600E-04  1.2800E-04  1.3400E-04  1.3600E-04  1.3800E-04
       1.5200E-04  2.0800E-04  2.9800E-04  3.7800E-04  4.4000E-04  4.8800E-04  5.0600E-04
  11   1.1000E-04  9.8000E-05  8.4000E-05  7.4000E-05  7.2000E-05  7.8000E-05  8.4000E-05  8.6000E-05  8.2000E-05  7.2000E-05
       5.6000E-05  1.0600E-04  2.1200E-04  3.0200E-04  3.7200E-04  4.2400E-04  4.6000E-04
  12   8.6000E-05  7.6000E-05  6.6000E-05  5.8000E-05  5.4000E-05  5.4000E-05  5.6000E-05  5.4000E-05  4.8000E-05  4.2000E-05
       4.2000E-05  8.4000E-05  1.6600E-04  2.4600E-04  3.1400E-04  3.6600E-04  4.1400E-04
  13   7.0000E-05  6.2000E-05  5.2000E-05  4.6000E-05  4.0000E-05  3.8000E-05  3.8000E-05  3.6000E-05  3.4000E-05  3.6000E-05
       5.0000E-05  8.8000E-05  1.4600E-04  2.1000E-04  2.7000E-04  3.2000E-04  3.7200E-04
  14   5.6000E-05  5.0000E-05  4.2000E-05  3.6000E-05  3.2000E-05  3.0000E-05  2.8000E-05  2.8000E-05  3.0000E-05  3.8000E-05
       5.8000E-05  9.0000E-05  1.3600E-04  1.8800E-04  2.3800E-04  2.8400E-04  3.3600E-04
  15   4.6000E-05  4.0000E-05  3.4000E-05  3.0000E-05  2.6000E-05  2.4000E-05  2.4000E-05  2.6000E-05  3.2000E-05  4.4000E-05
       6.4000E-05  9.2000E-05  1.3000E-04  1.7400E-04  2.1600E-04  2.5600E-04  3.0600E-04
  16   4.0000E-05  3.4000E-05  3.0000E-05  2.6000E-05  2.4000E-05  2.2000E-05  2.4000E-05  2.8000E-05  3.6000E-05  5.0000E-05
       6.8000E-05  9.4000E-05  1.2600E-04  1.6200E-04  2.0000E-04  2.3600E-04  2.8200E-04
  17   3.4000E-05  3.0000E-05  2.6000E-05  2.4000E-05  2.2000E-05  2.4000E-05  2.6000E-05  3.2000E-05  4.0000E-05  5.4000E-05
       7.2000E-05  9.6000E-05  1.2400E-04  1.5600E-04  1.8800E-04  2.1800E-04  2.6200E-04
  18   3.0000E-05  2.8000E-05  2.4000E-05  2.4000E-05  2.4000E-05  2.4000E-05  2.8000E-05  3.6000E-05  4.4000E-05  5.8000E-05
       7.6000E-05  9.8000E-05  1.2200E-04  1.5000E-04  1.7800E-04  2.0600E-04  2.4600E-04
  19   2.8000E-05  2.6000E-05  2.4000E-05  2.4000E-05  2.4000E-05  2.8000E-05  3.2000E-05  4.0000E-05  5.0000E-05  6.2000E-05
       7.8000E-05  9.8000E-05  1.2000E-04  1.4400E-04  1.7000E-04  1.9600E-04  2.3200E-04
  20   2.6000E-05  2.6000E-05  2.4000E-05  2.6000E-05  2.6000E-05  3.0000E-05  3.6000E-05  4.4000E-05  5.4000E-05  6.6000E-05
       8.2000E-05  1.0000E-04  1.2000E-04  1.4200E-04  1.6400E-04  1.8600E-04  2.2000E-04
  21   2.6000E-05  2.6000E-05  2.6000E-05  2.6000E-05  3.0000E-05  3.4000E-05  4.0000E-05  4.6000E-05  5.6000E-05  7.0000E-05
       8.4000E-05  1.0000E-04  1.1800E-04  1.3800E-04  1.5800E-04  1.8000E-04  2.1000E-04
  22   2.6000E-05  2.6000E-05  2.8000E-05  3.0000E-05  3.2000E-05  3.6000E-05  4.2000E-05  5.0000E-05  6.0000E-05  7.2000E-05
       8.6000E-05  1.0000E-04  1.1800E-04  1.3600E-04  1.5400E-04  1.7400E-04  2.0200E-04

         SPECIFIC STORAGE =  1.000000E-05 FOR LAYER   5

           SPECIFIC YIELD =  0.200000     FOR LAYER   5



                   WETDRY PARAMETER FOR LAYER   5
 READING ON UNIT   14 WITH FORMAT: (FREE)              

            1           2           3           4           5           6           7           8           9          10
           11          12          13          14          15          16          17
 ........................................................................................................................
   1   6.1000E-02  6.1000E-02  6.0825E-02  6.0619E-02  6.0412E-02  6.0205E-02  5.9999E-02  5.9792E-02  5.9700E-02  5.9700E-02
       5.9700E-02  6.1945E-02  6.4263E-02  6.6582E-02  6.8900E-02  7.1219E-02  7.4085E-02
   2   6.1000E-02  6.1000E-02  6.0914E-02  6.0708E-02  6.0501E-02  6.0294E-02  6.0088E-02  5.9881E-02  5.9700E-02  5.9911E-02
       6.2230E-02  6.4548E-02  6.6867E-02  6.9185E-02  7.1504E-02  7.3822E-02  7.6688E-02
   3   6.1000E-02  6.1000E-02  6.0985E-02  6.0779E-02  6.0572E-02  6.0366E-02  6.0159E-02  5.9952E-02  5.9794E-02  6.1994E-02
       6.4312E-02  6.6631E-02  6.8949E-02  7.1268E-02  7.3587E-02  7.5905E-02  7.8771E-02
   4   6.1000E-02  6.1000E-02  6.1000E-02  6.0850E-02  6.0643E-02  6.0449E-02  6.0293E-02  6.0228E-02  6.3376E-02  6.6523E-02
       6.6395E-02  6.8714E-02  7.1032E-02  7.3351E-02  7.5669E-02  7.7988E-02  8.0854E-02
   5   4.2750E-02  4.6836E-02  5.0923E-02  6.0979E-02  6.0824E-02  6.0669E-02  6.0662E-02  6.3810E-02  6.6957E-02  7.0105E-02
       7.3252E-02  7.0796E-02  7.3115E-02  7.5433E-02  7.7752E-02  8.0070E-02  8.2936E-02
   6   1.4000E-02  1.4000E-02  1.6919E-02  3.2190E-02  5.4635E-02  6.1097E-02  6.4244E-02  6.7392E-02  7.0539E-02  7.3687E-02
       7.6834E-02  7.9982E-02  7.5198E-02  7.7516E-02  7.9835E-02  8.2153E-02  8.5019E-02
   7   1.4000E-02  1.7664E-02  2.9887E-02  4.3350E-02  6.2691E-02  7.5319E-02  8.0822E-02  7.9900E-02  7.8978E-02  7.8056E-02
       8.0416E-02  8.3563E-02  8.6711E-02  7.9599E-02  8.1917E-02  8.4236E-02  8.7102E-02
   8   2.8996E-02  4.1220E-02  5.3444E-02  6.5667E-02  8.2554E-02  9.1038E-02  9.9426E-02  0.1078      0.1078      0.1068    
       0.1059      0.1050      0.1041      9.9337E-02  8.4000E-02  8.6319E-02  8.9185E-02
   9   5.2552E-02  6.4776E-02  7.7000E-02  8.9224E-02  9.6049E-02  0.1068      0.1151      0.1235      0.1319      0.1356    
       0.1347      0.1338      0.1328      0.1189      0.1043      8.9075E-02  9.1000E-02
  10   7.6108E-02  8.8332E-02  9.2000E-02  9.2000E-02  9.9295E-02  0.1111      0.1229      0.1347      0.1466      0.1560    
       0.1635      0.1625      0.1530      0.1384      0.1229      0.1046      9.1000E-02
  11   9.2000E-02  9.2000E-02  9.2000E-02  9.2000E-02  0.1025      0.1144      0.1262      0.1380      0.1498      0.1616    
       0.1734      0.1823      0.1640      0.1457      0.1274      0.1091      9.1000E-02
  12   9.2000E-02  9.2000E-02  9.2000E-02  9.3972E-02  0.1058      0.1176      0.1294      0.1412      0.1530      0.1649    
       0.1767      0.1830      0.1685      0.1502      0.1319      0.1136      9.1024E-02
  13   9.2000E-02  9.2000E-02  9.2000E-02  9.7219E-02  0.1090      0.1208      0.1327      0.1445      0.1563      0.1681    
       0.1799      0.1830      0.1730      0.1547      0.1364      0.1181      9.5516E-02
  14   9.2000E-02  9.2000E-02  9.2000E-02  0.1005      0.1123      0.1241      0.1359      0.1477      0.1595      0.1714    
       0.1830      0.1830      0.1775      0.1592      0.1409      0.1226      0.1000    
  15   9.2000E-02  9.2000E-02  9.2000E-02  0.1037      0.1155      0.1273      0.1392      0.1510      0.1628      0.1746    
       0.1830      0.1830      0.1820      0.1637      0.1454      0.1271      0.1045    
  16   9.2000E-02  9.2000E-02  9.5142E-02  0.1070      0.1188      0.1306      0.1424      0.1542      0.1660      0.1778    
       0.1830      0.1830      0.1830      0.1682      0.1499      0.1316      0.1090    
  17   9.2000E-02  9.2000E-02  9.8388E-02  0.1102      0.1220      0.1338      0.1456      0.1575      0.1693      0.1811    
       0.1830      0.1830      0.1830      0.1727      0.1544      0.1361      0.1135    
  18   9.2000E-02  9.2000E-02  0.1016      0.1134      0.1253      0.1371      0.1489      0.1607      0.1725      0.1830    
       0.1830      0.1830      0.1830      0.1772      0.1589      0.1406      0.1180    
  19   9.2000E-02  9.3065E-02  0.1049      0.1167      0.1285      0.1403      0.1521      0.1640      0.1758      0.1830    
       0.1830      0.1830      0.1830      0.1817      0.1634      0.1451      0.1225    
  20   9.2000E-02  9.6311E-02  0.1081      0.1199      0.1318      0.1436      0.1554      0.1672      0.1790      0.1830    
       0.1830      0.1830      0.1830      0.1830      0.1679      0.1496      0.1270    
  21   9.2000E-02  9.9557E-02  0.1114      0.1232      0.1350      0.1468      0.1586      0.1704      0.1823      0.1830    
       0.1830      0.1830      0.1830      0.1830      0.1724      0.1541      0.1315    
  22   9.2000E-02  0.1028      0.1146      0.1264      0.1382      0.1501      0.1619      0.1737      0.1830      0.1830    
       0.1830      0.1830      0.1830      0.1830      0.1768      0.1586      0.1359    

 RCH -- RECHARGE PACKAGE, VERSION 7, 5/2/2005 INPUT READ FROM UNIT   24
 # RCH: Recharge package file created on 07.07.2016 by ModelMuse version 3.7.1.0.
 No named parameters
 OPTION 3 -- RECHARGE TO HIGHEST ACTIVE NODE IN EACH VERTICAL COLUMN
 CELL-BY-CELL FLOWS WILL BE SAVED ON UNIT    9


     0 Recharge parameters

 CHD -- TIME-VARIANT SPECIFIED-HEAD OPTION, VERSION 7, 5/2/2005
 INPUT READ FROM UNIT   17
 # CHD: Time-Variant Specified-Head package file created on 07.07.2016 by ModelMuse version 3.7.1.0.
 No named parameters
 MAXIMUM OF     78 TIME-VARIANT SPECIFIED-HEAD CELLS AT ONE TIME
 AUXILIARY CHD VARIABLE: IFACE           


     0 TIME-VARIANT SPECIFIED-HEAD PARAMETERS

 PCG -- CONJUGATE-GRADIENT SOLUTION PACKAGE, VERSION 7, 5/2/2005
 # PCG: Preconditioned Conjugate Gradient package file created on 07.07.2016 by ModelMuse version 3.7.1.0.
 MAXIMUM OF     20 CALLS OF SOLUTION ROUTINE
 MAXIMUM OF     30 INTERNAL ITERATIONS PER CALL TO SOLUTION ROUTINE
 MATRIX PRECONDITIONING TYPE :    1



                                    SOLUTION BY THE CONJUGATE-GRADIENT METHOD
                                   -------------------------------------------
                    MAXIMUM NUMBER OF CALLS TO PCG ROUTINE =       20
                        MAXIMUM ITERATIONS PER CALL TO PCG =       30
                               MATRIX PRECONDITIONING TYPE =        1
        RELAXATION FACTOR (ONLY USED WITH PRECOND. TYPE 1) =    0.10000E+01
 PARAMETER OF POLYNOMIAL PRECOND. = 2 (2) OR IS CALCULATED :        1
                         HEAD CHANGE CRITERION FOR CLOSURE =    0.10000E-05
                     RESIDUAL CHANGE CRITERION FOR CLOSURE =    0.10000E-05
            PCG HEAD AND RESIDUAL CHANGE PRINTOUT INTERVAL =        1
     PRINTING FROM SOLVER IS LIMITED(1) OR SUPPRESSED (>1) =        0
                            STEADY-STATE DAMPING PARAMETER =    0.10000E+01
                               TRANSIENT DAMPING PARAMETER =    0.10000E+01

 OBS2BAS7 -- HEAD OBSERVATIONS, VERSION 2.0, 2/28/2006
 INPUT READ FROM UNIT  41
 # HOB: Head Observation package file created on 07.07.2016 by ModelMuse version 3.7.1.0.

 NUMBER OF HEADS....................................:  660
   NUMBER OF MULTILAYER HEADS.......................:  660
   MAXIMUM NUMBER OF LAYERS FOR MULTILAYER HEADS....:    4
 HEAD OBSERVATIONS WILL BE SAVED ON UNIT............:   42
 SIMULATED EQUIVALENT HEAD AT DRY CELLS WILL BE:  -1.000000E+06

 OBSERVED HEAD DATA -- TIME OFFSETS ARE MULTIPLIED BY:   1.0000    

                    REFER.
       OBSERVATION  STRESS    TIME
  OBS#    NAME      PERIOD   OFFSET    OBSERVATION
     1 G10           -132   0.8640E+05   110.7    
     MULTIPLE LAYERS AND PROPORTIONS :    2, 0.25       3, 0.25       4, 0.25       5, 0.25
  TRANSIENT DATA AT THIS LOCATION, ITT =   1
     1 G10_1            1   0.8640E+05   110.7    
     2 G10_2            3    0.000       110.6    
     3 G10_3            4    0.000       110.5    
     4 G10_4            5    0.000       110.4    
     5 G10_5            6    0.000       109.9    
     6 G10_6            7    0.000       109.8    
     7 G10_7            8    0.000       109.7    
     8 G10_8            9    0.000       109.6    
     9 G10_9           10    0.000       109.5    
    10 G10_10          11    0.000       109.4    
    11 G10_11          12    0.000       109.4    
    12 G10_12          13    0.000       109.4    
    13 G10_13          14    0.000       109.4    
    14 G10_14          15    0.000       109.3    
    15 G10_15          16    0.000       109.3    
    16 G10_16          17    0.000       109.3    
    17 G10_17          18    0.000       109.4    
    18 G10_18          19    0.000       109.4    
    19 G10_19          20    0.000       109.4    
    20 G10_20          21    0.000       109.4    
    21 G10_21          22    0.000       109.4    
    22 G10_22          23    0.000       109.4    
    23 G10_23          24    0.000       109.3    
    24 G10_24          25    0.000       109.3    
    25 G10_25          26    0.000       109.4    
    26 G10_26          27    0.000       109.6    
    27 G10_27          28    0.000       109.7    
    28 G10_28          29    0.000       109.7    
    29 G10_29          30    0.000       109.6    
    30 G10_30          31    0.000       109.6    
    31 G10_31          32    0.000       109.5    
    32 G10_32          33    0.000       109.5    
    33 G10_33          34    0.000       109.4    
    34 G10_34          35    0.000       109.4    
    35 G10_35          36    0.000       109.6    
    36 G10_36          37    0.000       109.6    
    37 G10_37          38    0.000       109.6    
    38 G10_38          39    0.000       109.6    
    39 G10_39          40    0.000       109.5    
    40 G10_40          41    0.000       109.5    
    41 G10_41          42    0.000       109.5    
    42 G10_42          43    0.000       109.6    
    43 G10_43          44    0.000       109.5    
    44 G10_44          45    0.000       109.5    
    45 G10_45          46    0.000       109.6    
    46 G10_46          47    0.000       109.6    
    47 G10_47          48    0.000       109.6    
    48 G10_48          49    0.000       109.7    
    49 G10_49          50    0.000       109.6    
    50 G10_50          51    0.000       109.5    
    51 G10_51          52    0.000       109.5    
    52 G10_52          53    0.000       109.4    
    53 G10_53          54    0.000       109.4    
    54 G10_54          55    0.000       109.5    
    55 G10_55          56    0.000       109.4    
    56 G10_56          57    0.000       109.4    
    57 G10_57          58    0.000       109.4    
    58 G10_58          59    0.000       109.4    
    59 G10_59          60    0.000       109.5    
    60 G10_60          61    0.000       109.5    
    61 G10_61          62    0.000       109.5    
    62 G10_62          63    0.000       109.4    
    63 G10_63          64    0.000       109.4    
    64 G10_64          65    0.000       109.4    
    65 G10_65          66    0.000       109.4    
    66 G10_66          67    0.000       109.4    
    67 G10_67          68    0.000       109.5    
    68 G10_68          69    0.000       109.5    
    69 G10_69          70    0.000       109.5    
    70 G10_70          71    0.000       109.6    
    71 G10_71          72    0.000       109.7    
    72 G10_72          73    0.000       109.8    
    73 G10_73          74    0.000       109.8    
    74 G10_74          75    0.000       109.8    
    75 G10_75          76    0.000       109.8    
    76 G10_76          77    0.000       109.9    
    77 G10_77          78    0.000       109.8    
    78 G10_78          79    0.000       110.3    
    79 G10_79          80    0.000       110.3    
    80 G10_80          81    0.000       110.4    
    81 G10_81          82    0.000       110.4    
    82 G10_82          83    0.000       110.4    
    83 G10_83          84    0.000       110.4    
    84 G10_84          85    0.000       110.5    
    85 G10_85          86    0.000       110.4    
    86 G10_86          87    0.000       110.4    
    87 G10_87          88    0.000       110.3    
    88 G10_88          89    0.000       110.3    
    89 G10_89          90    0.000       110.2    
    90 G10_90          91    0.000       110.2    
    91 G10_91          92    0.000       110.3    
    92 G10_92          93    0.000       110.3    
    93 G10_93          94    0.000       110.0    
    94 G10_94          95    0.000       109.9    
    95 G10_95          96    0.000       109.9    
    96 G10_96          97    0.000       109.8    
    97 G10_97          98    0.000       109.9    
    98 G10_98          99    0.000       109.9    
    99 G10_99         100    0.000       110.0    
   100 G10_100        101    0.000       110.0    
   101 G10_101        102    0.000       110.2    
   102 G10_102        103    0.000       110.2    
   103 G10_103        104    0.000       110.3    
   104 G10_104        105    0.000       110.4    
   105 G10_105        106    0.000       110.7    
   106 G10_106        107    0.000       110.8    
   107 G10_107        108    0.000       110.7    
   108 G10_108        109    0.000       110.7    
   109 G10_109        110    0.000       110.5    
   110 G10_110        111    0.000       110.3    
   111 G10_111        112    0.000       110.3    
   112 G10_112        113    0.000       110.2    
   113 G10_113        114    0.000       110.1    
   114 G10_114        115    0.000       110.1    
   115 G10_115        116    0.000       110.0    
   116 G10_116        117    0.000       110.0    
   117 G10_117        118    0.000       110.0    
   118 G10_118        119    0.000       110.0    
   119 G10_119        120    0.000       110.0    
   120 G10_120        121    0.000       110.0    
   121 G10_121        122    0.000       110.0    
   122 G10_122        123    0.000       110.1    
   123 G10_123        124    0.000       110.1    
   124 G10_124        125    0.000       110.1    
   125 G10_125        126    0.000       110.0    
   126 G10_126        127    0.000       110.0    
   127 G10_127        128    0.000       110.0    
   128 G10_128        129    0.000       110.0    
   129 G10_129        130    0.000       109.8    
   130 G10_130        131    0.000       109.8    
   131 G10_131        132    0.000       109.9    
   132 G10_132        132   0.8640E+05   109.9    
 
   133 G11           -132   0.8640E+05   110.7    
     MULTIPLE LAYERS AND PROPORTIONS :    2, 0.25       3, 0.25       4, 0.25       5, 0.25
  TRANSIENT DATA AT THIS LOCATION, ITT =   1
   133 G11_1            1   0.8640E+05   110.7    
   134 G11_2            3    0.000       110.6    
   135 G11_3            4    0.000       110.5    
   136 G11_4            5    0.000       110.4    
   137 G11_5            6    0.000       109.8    
   138 G11_6            7    0.000       109.8    
   139 G11_7            8    0.000       109.6    
   140 G11_8            9    0.000       109.6    
   141 G11_9           10    0.000       109.4    
   142 G11_10          11    0.000       109.4    
   143 G11_11          12    0.000       109.4    
   144 G11_12          13    0.000       109.4    
   145 G11_13          14    0.000       109.4    
   146 G11_14          15    0.000       109.3    
   147 G11_15          16    0.000       109.3    
   148 G11_16          17    0.000       109.3    
   149 G11_17          18    0.000       109.3    
   150 G11_18          19    0.000       109.4    
   151 G11_19          20    0.000       109.4    
   152 G11_20          21    0.000       109.4    
   153 G11_21          22    0.000       109.4    
   154 G11_22          23    0.000       109.4    
   155 G11_23          24    0.000       109.3    
   156 G11_24          25    0.000       109.3    
   157 G11_25          26    0.000       109.4    
   158 G11_26          27    0.000       109.6    
   159 G11_27          28    0.000       109.7    
   160 G11_28          29    0.000       109.6    
   161 G11_29          30    0.000       109.6    
   162 G11_30          31    0.000       109.5    
   163 G11_31          32    0.000       109.5    
   164 G11_32          33    0.000       109.4    
   165 G11_33          34    0.000       109.3    
   166 G11_34          35    0.000       109.3    
   167 G11_35          36    0.000       109.5    
   168 G11_36          37    0.000       109.6    
   169 G11_37          38    0.000       109.6    
   170 G11_38          39    0.000       109.5    
   171 G11_39          40    0.000       109.5    
   172 G11_40          41    0.000       109.5    
   173 G11_41          42    0.000       109.5    
   174 G11_42          43    0.000       109.5    
   175 G11_43          44    0.000       109.5    
   176 G11_44          45    0.000       109.5    
   177 G11_45          46    0.000       109.6    
   178 G11_46          47    0.000       109.5    
   179 G11_47          48    0.000       109.6    
   180 G11_48          49    0.000       109.7    
   181 G11_49          50    0.000       109.6    
   182 G11_50          51    0.000       109.5    
   183 G11_51          52    0.000       109.5    
   184 G11_52          53    0.000       109.4    
   185 G11_53          54    0.000       109.4    
   186 G11_54          55    0.000       109.4    
   187 G11_55          56    0.000       109.4    
   188 G11_56          57    0.000       109.4    
   189 G11_57          58    0.000       109.4    
   190 G11_58          59    0.000       109.4    
   191 G11_59          60    0.000       109.4    
   192 G11_60          61    0.000       109.5    
   193 G11_61          62    0.000       109.4    
   194 G11_62          63    0.000       109.4    
   195 G11_63          64    0.000       109.4    
   196 G11_64          65    0.000       109.4    
   197 G11_65          66    0.000       109.4    
   198 G11_66          67    0.000       109.4    
   199 G11_67          68    0.000       109.5    
   200 G11_68          69    0.000       109.5    
   201 G11_69          70    0.000       109.5    
   202 G11_70          71    0.000       109.6    
   203 G11_71          72    0.000       109.7    
   204 G11_72          73    0.000       109.8    
   205 G11_73          74    0.000       109.8    
   206 G11_74          75    0.000       109.8    
   207 G11_75          76    0.000       109.8    
   208 G11_76          77    0.000       109.8    
   209 G11_77          78    0.000       109.8    
   210 G11_78          79    0.000       110.3    
   211 G11_79          80    0.000       110.3    
   212 G11_80          81    0.000       110.5    
   213 G11_81          82    0.000       110.4    
   214 G11_82          83    0.000       110.4    
   215 G11_83          84    0.000       110.4    
   216 G11_84          85    0.000       110.5    
   217 G11_85          86    0.000       110.4    
   218 G11_86          87    0.000       110.4    
   219 G11_87          88    0.000       110.2    
   220 G11_88          89    0.000       110.3    
   221 G11_89          90    0.000       110.2    
   222 G11_90          91    0.000       110.2    
   223 G11_91          92    0.000       110.2    
   224 G11_92          93    0.000       110.2    
   225 G11_93          94    0.000       110.0    
   226 G11_94          95    0.000       109.9    
   227 G11_95          96    0.000       109.9    
   228 G11_96          97    0.000       109.8    
   229 G11_97          98    0.000       109.9    
   230 G11_98          99    0.000       109.9    
   231 G11_99         100    0.000       109.9    
   232 G11_100        101    0.000       110.0    
   233 G11_101        102    0.000       110.2    
   234 G11_102        103    0.000       110.2    
   235 G11_103        104    0.000       110.3    
   236 G11_104        105    0.000       110.4    
   237 G11_105        106    0.000       110.8    
   238 G11_106        107    0.000       110.7    
   239 G11_107        108    0.000       110.7    
   240 G11_108        109    0.000       110.6    
   241 G11_109        110    0.000       110.5    
   242 G11_110        111    0.000       110.3    
   243 G11_111        112    0.000       110.2    
   244 G11_112        113    0.000       110.1    
   245 G11_113        114    0.000       110.1    
   246 G11_114        115    0.000       110.0    
   247 G11_115        116    0.000       110.0    
   248 G11_116        117    0.000       110.0    
   249 G11_117        118    0.000       107.0    
   250 G11_118        119    0.000       110.0    
   251 G11_119        120    0.000       110.0    
   252 G11_120        121    0.000       109.9    
   253 G11_121        122    0.000       110.0    
   254 G11_122        123    0.000       110.1    
   255 G11_123        124    0.000       110.1    
   256 G11_124        125    0.000       110.0    
   257 G11_125        126    0.000       110.0    
   258 G11_126        127    0.000       110.0    
   259 G11_127        128    0.000       110.0    
   260 G11_128        129    0.000       109.9    
   261 G11_129        130    0.000       109.7    
   262 G11_130        131    0.000       109.8    
   263 G11_131        132    0.000       109.9    
   264 G11_132        132   0.8640E+05   109.8    
 
   265 G13           -132   0.8640E+05   110.6    
     MULTIPLE LAYERS AND PROPORTIONS :    3, 0.33       4, 0.33       5, 0.33
  TRANSIENT DATA AT THIS LOCATION, ITT =   1
   265 G13_1            1   0.8640E+05   110.6    
   266 G13_2            3    0.000       110.6    
   267 G13_3            4    0.000       110.5    
   268 G13_4            5    0.000       110.4    
   269 G13_5            6    0.000       109.8    
   270 G13_6            7    0.000       109.8    
   271 G13_7            8    0.000       109.7    
   272 G13_8            9    0.000       109.6    
   273 G13_9           10    0.000       109.4    
   274 G13_10          11    0.000       109.4    
   275 G13_11          12    0.000       109.4    
   276 G13_12          13    0.000       109.4    
   277 G13_13          14    0.000       109.4    
   278 G13_14          15    0.000       109.3    
   279 G13_15          16    0.000       109.3    
   280 G13_16          17    0.000       109.3    
   281 G13_17          18    0.000       109.3    
   282 G13_18          19    0.000       109.4    
   283 G13_19          20    0.000       109.4    
   284 G13_20          21    0.000       109.4    
   285 G13_21          22    0.000       109.4    
   286 G13_22          23    0.000       109.4    
   287 G13_23          24    0.000       109.3    
   288 G13_24          25    0.000       109.3    
   289 G13_25          26    0.000       109.4    
   290 G13_26          27    0.000       109.6    
   291 G13_27          28    0.000       109.7    
   292 G13_28          29    0.000       109.7    
   293 G13_29          30    0.000       109.6    
   294 G13_30          31    0.000       109.5    
   295 G13_31          32    0.000       109.5    
   296 G13_32          33    0.000       109.4    
   297 G13_33          34    0.000       109.4    
   298 G13_34          35    0.000       109.3    
   299 G13_35          36    0.000       109.5    
   300 G13_36          37    0.000       109.6    
   301 G13_37          38    0.000       109.6    
   302 G13_38          39    0.000       109.5    
   303 G13_39          40    0.000       109.5    
   304 G13_40          41    0.000       109.5    
   305 G13_41          42    0.000       109.5    
   306 G13_42          43    0.000       109.5    
   307 G13_43          44    0.000       109.5    
   308 G13_44          45    0.000       109.5    
   309 G13_45          46    0.000       109.6    
   310 G13_46          47    0.000       109.5    
   311 G13_47          48    0.000       109.6    
   312 G13_48          49    0.000       109.7    
   313 G13_49          50    0.000       109.6    
   314 G13_50          51    0.000       109.5    
   315 G13_51          52    0.000       109.5    
   316 G13_52          53    0.000       109.4    
   317 G13_53          54    0.000       109.4    
   318 G13_54          55    0.000       109.4    
   319 G13_55          56    0.000       109.4    
   320 G13_56          57    0.000       109.4    
   321 G13_57          58    0.000       109.4    
   322 G13_58          59    0.000       109.4    
   323 G13_59          60    0.000       109.4    
   324 G13_60          61    0.000       109.5    
   325 G13_61          62    0.000       109.4    
   326 G13_62          63    0.000       109.5    
   327 G13_63          64    0.000       109.4    
   328 G13_64          65    0.000       109.4    
   329 G13_65          66    0.000       109.4    
   330 G13_66          67    0.000       109.4    
   331 G13_67          68    0.000       109.5    
   332 G13_68          69    0.000       109.5    
   333 G13_69          70    0.000       109.5    
   334 G13_70          71    0.000       109.6    
   335 G13_71          72    0.000       109.7    
   336 G13_72          73    0.000       109.8    
   337 G13_73          74    0.000       109.8    
   338 G13_74          75    0.000       109.8    
   339 G13_75          76    0.000       109.8    
   340 G13_76          77    0.000       109.8    
   341 G13_77          78    0.000       109.8    
   342 G13_78          79    0.000       110.3    
   343 G13_79          80    0.000       110.3    
   344 G13_80          81    0.000       110.4    
   345 G13_81          82    0.000       110.4    
   346 G13_82          83    0.000       110.4    
   347 G13_83          84    0.000       110.4    
   348 G13_84          85    0.000       110.5    
   349 G13_85          86    0.000       110.5    
   350 G13_86          87    0.000       110.4    
   351 G13_87          88    0.000       110.2    
   352 G13_88          89    0.000       110.2    
   353 G13_89          90    0.000       110.2    
   354 G13_90          91    0.000       110.2    
   355 G13_91          92    0.000       110.3    
   356 G13_92          93    0.000       110.2    
   357 G13_93          94    0.000       110.0    
   358 G13_94          95    0.000       109.9    
   359 G13_95          96    0.000       109.9    
   360 G13_96          97    0.000       109.8    
   361 G13_97          98    0.000       109.9    
   362 G13_98          99    0.000       109.9    
   363 G13_99         100    0.000       110.0    
   364 G13_100        101    0.000       110.0    
   365 G13_101        102    0.000       110.2    
   366 G13_102        103    0.000       110.2    
   367 G13_103        104    0.000       110.3    
   368 G13_104        105    0.000       110.4    
   369 G13_105        106    0.000       110.8    
   370 G13_106        107    0.000       110.7    
   371 G13_107        108    0.000       110.7    
   372 G13_108        109    0.000       110.6    
   373 G13_109        110    0.000       110.5    
   374 G13_110        111    0.000       110.3    
   375 G13_111        112    0.000       110.1    
   376 G13_112        113    0.000       110.2    
   377 G13_113        114    0.000       110.1    
   378 G13_114        115    0.000       110.0    
   379 G13_115        116    0.000       110.0    
   380 G13_116        117    0.000       110.0    
   381 G13_117        118    0.000       110.0    
   382 G13_118        119    0.000       110.0    
   383 G13_119        120    0.000       110.0    
   384 G13_120        121    0.000       109.9    
   385 G13_121        122    0.000       110.0    
   386 G13_122        123    0.000       110.1    
   387 G13_123        124    0.000       110.1    
   388 G13_124        125    0.000       110.0    
   389 G13_125        126    0.000       110.0    
   390 G13_126        127    0.000       110.0    
   391 G13_127        128    0.000       110.0    
   392 G13_128        129    0.000       109.9    
   393 G13_129        130    0.000       109.8    
   394 G13_130        131    0.000       109.8    
   395 G13_131        132    0.000       109.9    
   396 G13_132        132   0.8640E+05   109.8    
 
   397 G12           -132   0.8640E+05   110.7    
     MULTIPLE LAYERS AND PROPORTIONS :    2, 0.25       3, 0.25       4, 0.25       5, 0.25
  TRANSIENT DATA AT THIS LOCATION, ITT =   1
   397 G12_1            1   0.8640E+05   110.7    
   398 G12_2            3    0.000       110.6    
   399 G12_3            4    0.000       110.5    
   400 G12_4            5    0.000       110.4    
   401 G12_5            6    0.000       109.8    
   402 G12_6            7    0.000       109.8    
   403 G12_7            8    0.000       109.7    
   404 G12_8            9    0.000       109.6    
   405 G12_9           10    0.000       109.4    
   406 G12_10          11    0.000       109.4    
   407 G12_11          12    0.000       109.4    
   408 G12_12          13    0.000       109.4    
   409 G12_13          14    0.000       109.4    
   410 G12_14          15    0.000       109.3    
   411 G12_15          16    0.000       109.3    
   412 G12_16          17    0.000       109.3    
   413 G12_17          18    0.000       109.3    
   414 G12_18          19    0.000       109.4    
   415 G12_19          20    0.000       109.4    
   416 G12_20          21    0.000       109.4    
   417 G12_21          22    0.000       109.4    
   418 G12_22          23    0.000       109.4    
   419 G12_23          24    0.000       109.3    
   420 G12_24          25    0.000       109.3    
   421 G12_25          26    0.000       109.4    
   422 G12_26          27    0.000       109.6    
   423 G12_27          28    0.000       109.7    
   424 G12_28          29    0.000       109.7    
   425 G12_29          30    0.000       109.6    
   426 G12_30          31    0.000       109.5    
   427 G12_31          32    0.000       109.5    
   428 G12_32          33    0.000       109.4    
   429 G12_33          34    0.000       109.4    
   430 G12_34          35    0.000       109.3    
   431 G12_35          36    0.000       109.5    
   432 G12_36          37    0.000       109.6    
   433 G12_37          38    0.000       109.6    
   434 G12_38          39    0.000       109.5    
   435 G12_39          40    0.000       109.5    
   436 G12_40          41    0.000       109.5    
   437 G12_41          42    0.000       109.5    
   438 G12_42          43    0.000       109.5    
   439 G12_43          44    0.000       109.5    
   440 G12_44          45    0.000       109.5    
   441 G12_45          46    0.000       109.6    
   442 G12_46          47    0.000       109.5    
   443 G12_47          48    0.000       109.6    
   444 G12_48          49    0.000       109.7    
   445 G12_49          50    0.000       109.6    
   446 G12_50          51    0.000       109.5    
   447 G12_51          52    0.000       109.5    
   448 G12_52          53    0.000       109.4    
   449 G12_53          54    0.000       109.4    
   450 G12_54          55    0.000       109.4    
   451 G12_55          56    0.000       109.4    
   452 G12_56          57    0.000       109.4    
   453 G12_57          58    0.000       109.4    
   454 G12_58          59    0.000       109.4    
   455 G12_59          60    0.000       109.4    
   456 G12_60          61    0.000       109.5    
   457 G12_61          62    0.000       109.4    
   458 G12_62          63    0.000       109.4    
   459 G12_63          64    0.000       109.4    
   460 G12_64          65    0.000       109.4    
   461 G12_65          66    0.000       109.4    
   462 G12_66          67    0.000       109.4    
   463 G12_67          68    0.000       109.5    
   464 G12_68          69    0.000       109.5    
   465 G12_69          70    0.000       109.5    
   466 G12_70          71    0.000       109.6    
   467 G12_71          72    0.000       109.7    
   468 G12_72          73    0.000       109.8    
   469 G12_73          74    0.000       109.8    
   470 G12_74          75    0.000       109.8    
   471 G12_75          76    0.000       109.8    
   472 G12_76          77    0.000       109.8    
   473 G12_77          78    0.000       109.8    
   474 G12_78          79    0.000       110.3    
   475 G12_79          80    0.000       110.3    
   476 G12_80          81    0.000       110.5    
   477 G12_81          82    0.000       110.4    
   478 G12_82          83    0.000       110.4    
   479 G12_83          84    0.000       110.4    
   480 G12_84          85    0.000       110.5    
   481 G12_85          86    0.000       110.4    
   482 G12_86          87    0.000       110.4    
   483 G12_87          88    0.000       110.2    
   484 G12_88          89    0.000       110.3    
   485 G12_89          90    0.000       110.2    
   486 G12_90          91    0.000       110.2    
   487 G12_91          92    0.000       110.2    
   488 G12_92          93    0.000       110.2    
   489 G12_93          94    0.000       110.0    
   490 G12_94          95    0.000       109.9    
   491 G12_95          96    0.000       109.9    
   492 G12_96          97    0.000       109.8    
   493 G12_97          98    0.000       109.9    
   494 G12_98          99    0.000       109.9    
   495 G12_99         100    0.000       110.0    
   496 G12_100        101    0.000       110.0    
   497 G12_101        102    0.000       110.2    
   498 G12_102        103    0.000       110.2    
   499 G12_103        104    0.000       110.3    
   500 G12_104        105    0.000       110.4    
   501 G12_105        106    0.000       110.8    
   502 G12_106        107    0.000       110.7    
   503 G12_107        108    0.000       110.7    
   504 G12_108        109    0.000       110.7    
   505 G12_109        110    0.000       110.5    
   506 G12_110        111    0.000       110.3    
   507 G12_111        112    0.000       110.2    
   508 G12_112        113    0.000       110.2    
   509 G12_113        114    0.000       110.1    
   510 G12_114        115    0.000       110.0    
   511 G12_115        116    0.000       110.0    
   512 G12_116        117    0.000       110.0    
   513 G12_117        118    0.000       110.0    
   514 G12_118        119    0.000       110.0    
   515 G12_119        120    0.000       110.0    
   516 G12_120        121    0.000       110.0    
   517 G12_121        122    0.000       110.0    
   518 G12_122        123    0.000       110.1    
   519 G12_123        124    0.000       110.1    
   520 G12_124        125    0.000       110.0    
   521 G12_125        126    0.000       110.0    
   522 G12_126        127    0.000       110.0    
   523 G12_127        128    0.000       110.0    
   524 G12_128        129    0.000       109.9    
   525 G12_129        130    0.000       109.7    
   526 G12_130        131    0.000       109.8    
   527 G12_131        132    0.000       109.9    
   528 G12_132        132   0.8640E+05   109.8    
 
   529 G21           -132   0.8640E+05   110.6    
     MULTIPLE LAYERS AND PROPORTIONS :    3, 0.33       4, 0.33       5, 0.33
  TRANSIENT DATA AT THIS LOCATION, ITT =   1
   529 G21_1            1   0.8640E+05   110.6    
   530 G21_2            3    0.000       110.5    
   531 G21_3            4    0.000       110.5    
   532 G21_4            5    0.000       110.4    
   533 G21_5            6    0.000       109.8    
   534 G21_6            7    0.000       109.7    
   535 G21_7            8    0.000       109.6    
   536 G21_8            9    0.000       109.6    
   537 G21_9           10    0.000       109.4    
   538 G21_10          11    0.000       109.4    
   539 G21_11          12    0.000       109.4    
   540 G21_12          13    0.000       109.4    
   541 G21_13          14    0.000       109.4    
   542 G21_14          15    0.000       109.3    
   543 G21_15          16    0.000       109.3    
   544 G21_16          17    0.000       109.3    
   545 G21_17          18    0.000       109.3    
   546 G21_18          19    0.000       109.4    
   547 G21_19          20    0.000       109.4    
   548 G21_20          21    0.000       109.4    
   549 G21_21          22    0.000       109.4    
   550 G21_22          23    0.000       109.4    
   551 G21_23          24    0.000       109.3    
   552 G21_24          25    0.000       109.3    
   553 G21_25          26    0.000       109.4    
   554 G21_26          27    0.000       109.6    
   555 G21_27          28    0.000       109.7    
   556 G21_28          29    0.000       109.6    
   557 G21_29          30    0.000       109.6    
   558 G21_30          31    0.000       109.5    
   559 G21_31          32    0.000       109.5    
   560 G21_32          33    0.000       109.4    
   561 G21_33          34    0.000       109.3    
   562 G21_34          35    0.000       109.3    
   563 G21_35          36    0.000       109.5    
   564 G21_36          37    0.000       109.6    
   565 G21_37          38    0.000       109.5    
   566 G21_38          39    0.000       109.5    
   567 G21_39          40    0.000       109.5    
   568 G21_40          41    0.000       109.4    
   569 G21_41          42    0.000       109.5    
   570 G21_42          43    0.000       109.5    
   571 G21_43          44    0.000       109.5    
   572 G21_44          45    0.000       109.5    
   573 G21_45          46    0.000       109.6    
   574 G21_46          47    0.000       109.5    
   575 G21_47          48    0.000       109.6    
   576 G21_48          49    0.000       109.7    
   577 G21_49          50    0.000       109.6    
   578 G21_50          51    0.000       109.5    
   579 G21_51          52    0.000       109.5    
   580 G21_52          53    0.000       109.4    
   581 G21_53          54    0.000       109.4    
   582 G21_54          55    0.000       109.4    
   583 G21_55          56    0.000       109.4    
   584 G21_56          57    0.000       109.4    
   585 G21_57          58    0.000       109.4    
   586 G21_58          59    0.000       109.4    
   587 G21_59          60    0.000       109.4    
   588 G21_60          61    0.000       109.5    
   589 G21_61          62    0.000       109.4    
   590 G21_62          63    0.000       109.4    
   591 G21_63          64    0.000       109.4    
   592 G21_64          65    0.000       109.4    
   593 G21_65          66    0.000       109.4    
   594 G21_66          67    0.000       109.4    
   595 G21_67          68    0.000       109.5    
   596 G21_68          69    0.000       109.5    
   597 G21_69          70    0.000       109.5    
   598 G21_70          71    0.000       109.6    
   599 G21_71          72    0.000       109.7    
   600 G21_72          73    0.000       109.8    
   601 G21_73          74    0.000       109.8    
   602 G21_74          75    0.000       109.8    
   603 G21_75          76    0.000       109.8    
   604 G21_76          77    0.000       109.8    
   605 G21_77          78    0.000       109.8    
   606 G21_78          79    0.000       110.3    
   607 G21_79          80    0.000       110.3    
   608 G21_80          81    0.000       110.5    
   609 G21_81          82    0.000       110.4    
   610 G21_82          83    0.000       110.4    
   611 G21_83          84    0.000       110.4    
   612 G21_84          85    0.000       110.4    
   613 G21_85          86    0.000       110.4    
   614 G21_86          87    0.000       110.4    
   615 G21_87          88    0.000       110.2    
   616 G21_88          89    0.000       110.2    
   617 G21_89          90    0.000       110.2    
   618 G21_90          91    0.000       110.2    
   619 G21_91          92    0.000       110.2    
   620 G21_92          93    0.000       110.2    
   621 G21_93          94    0.000       110.0    
   622 G21_94          95    0.000       109.9    
   623 G21_95          96    0.000       109.9    
   624 G21_96          97    0.000       109.8    
   625 G21_97          98    0.000       109.8    
   626 G21_98          99    0.000       109.9    
   627 G21_99         100    0.000       109.9    
   628 G21_100        101    0.000       110.0    
   629 G21_101        102    0.000       110.2    
   630 G21_102        103    0.000       110.2    
   631 G21_103        104    0.000       110.3    
   632 G21_104        105    0.000       110.4    
   633 G21_105        106    0.000       110.7    
   634 G21_106        107    0.000       110.7    
   635 G21_107        108    0.000       110.7    
   636 G21_108        109    0.000       110.6    
   637 G21_109        110    0.000       110.4    
   638 G21_110        111    0.000       110.2    
   639 G21_111        112    0.000       110.1    
   640 G21_112        113    0.000       110.1    
   641 G21_113        114    0.000       110.1    
   642 G21_114        115    0.000       110.0    
   643 G21_115        116    0.000       110.0    
   644 G21_116        117    0.000       110.0    
   645 G21_117        118    0.000       110.0    
   646 G21_118        119    0.000       110.0    
   647 G21_119        120    0.000       110.0    
   648 G21_120        121    0.000       110.0    
   649 G21_121        122    0.000       109.9    
   650 G21_122        123    0.000       110.1    
   651 G21_123        124    0.000       110.1    
   652 G21_124        125    0.000       110.0    
   653 G21_125        126    0.000       110.0    
   654 G21_126        127    0.000       110.0    
   655 G21_127        128    0.000       110.0    
   656 G21_128        129    0.000       109.9    
   657 G21_129        130    0.000       109.8    
   658 G21_130        131    0.000       109.8    
   659 G21_131        132    0.000       109.8    
   660 G21_132        132   0.8640E+05   109.8    
 

                                                     HEAD CHANGE
                                                      REFERENCE
        OBSERVATION                   ROW     COL    OBSERVATION
  OBS#     NAME       LAY  ROW  COL  OFFSET  OFFSET   (IF > 0)
     1  G10_1          -4    3    9  -0.160   0.167        0
     2  G10_2          -4    3    9  -0.160   0.167        0
     3  G10_3          -4    3    9  -0.160   0.167        0
     4  G10_4          -4    3    9  -0.160   0.167        0
     5  G10_5          -4    3    9  -0.160   0.167        0
     6  G10_6          -4    3    9  -0.160   0.167        0
     7  G10_7          -4    3    9  -0.160   0.167        0
     8  G10_8          -4    3    9  -0.160   0.167        0
     9  G10_9          -4    3    9  -0.160   0.167        0
    10  G10_10         -4    3    9  -0.160   0.167        0
    11  G10_11         -4    3    9  -0.160   0.167        0
    12  G10_12         -4    3    9  -0.160   0.167        0
    13  G10_13         -4    3    9  -0.160   0.167        0
    14  G10_14         -4    3    9  -0.160   0.167        0
    15  G10_15         -4    3    9  -0.160   0.167        0
    16  G10_16         -4    3    9  -0.160   0.167        0
    17  G10_17         -4    3    9  -0.160   0.167        0
    18  G10_18         -4    3    9  -0.160   0.167        0
    19  G10_19         -4    3    9  -0.160   0.167        0
    20  G10_20         -4    3    9  -0.160   0.167        0
    21  G10_21         -4    3    9  -0.160   0.167        0
    22  G10_22         -4    3    9  -0.160   0.167        0
    23  G10_23         -4    3    9  -0.160   0.167        0
    24  G10_24         -4    3    9  -0.160   0.167        0
    25  G10_25         -4    3    9  -0.160   0.167        0
    26  G10_26         -4    3    9  -0.160   0.167        0
    27  G10_27         -4    3    9  -0.160   0.167        0
    28  G10_28         -4    3    9  -0.160   0.167        0
    29  G10_29         -4    3    9  -0.160   0.167        0
    30  G10_30         -4    3    9  -0.160   0.167        0
    31  G10_31         -4    3    9  -0.160   0.167        0
    32  G10_32         -4    3    9  -0.160   0.167        0
    33  G10_33         -4    3    9  -0.160   0.167        0
    34  G10_34         -4    3    9  -0.160   0.167        0
    35  G10_35         -4    3    9  -0.160   0.167        0
    36  G10_36         -4    3    9  -0.160   0.167        0
    37  G10_37         -4    3    9  -0.160   0.167        0
    38  G10_38         -4    3    9  -0.160   0.167        0
    39  G10_39         -4    3    9  -0.160   0.167        0
    40  G10_40         -4    3    9  -0.160   0.167        0
    41  G10_41         -4    3    9  -0.160   0.167        0
    42  G10_42         -4    3    9  -0.160   0.167        0
    43  G10_43         -4    3    9  -0.160   0.167        0
    44  G10_44         -4    3    9  -0.160   0.167        0
    45  G10_45         -4    3    9  -0.160   0.167        0
    46  G10_46         -4    3    9  -0.160   0.167        0
    47  G10_47         -4    3    9  -0.160   0.167        0
    48  G10_48         -4    3    9  -0.160   0.167        0
    49  G10_49         -4    3    9  -0.160   0.167        0
    50  G10_50         -4    3    9  -0.160   0.167        0
    51  G10_51         -4    3    9  -0.160   0.167        0
    52  G10_52         -4    3    9  -0.160   0.167        0
    53  G10_53         -4    3    9  -0.160   0.167        0
    54  G10_54         -4    3    9  -0.160   0.167        0
    55  G10_55         -4    3    9  -0.160   0.167        0
    56  G10_56         -4    3    9  -0.160   0.167        0
    57  G10_57         -4    3    9  -0.160   0.167        0
    58  G10_58         -4    3    9  -0.160   0.167        0
    59  G10_59         -4    3    9  -0.160   0.167        0
    60  G10_60         -4    3    9  -0.160   0.167        0
    61  G10_61         -4    3    9  -0.160   0.167        0
    62  G10_62         -4    3    9  -0.160   0.167        0
    63  G10_63         -4    3    9  -0.160   0.167        0
    64  G10_64         -4    3    9  -0.160   0.167        0
    65  G10_65         -4    3    9  -0.160   0.167        0
    66  G10_66         -4    3    9  -0.160   0.167        0
    67  G10_67         -4    3    9  -0.160   0.167        0
    68  G10_68         -4    3    9  -0.160   0.167        0
    69  G10_69         -4    3    9  -0.160   0.167        0
    70  G10_70         -4    3    9  -0.160   0.167        0
    71  G10_71         -4    3    9  -0.160   0.167        0
    72  G10_72         -4    3    9  -0.160   0.167        0
    73  G10_73         -4    3    9  -0.160   0.167        0
    74  G10_74         -4    3    9  -0.160   0.167        0
    75  G10_75         -4    3    9  -0.160   0.167        0
    76  G10_76         -4    3    9  -0.160   0.167        0
    77  G10_77         -4    3    9  -0.160   0.167        0
    78  G10_78         -4    3    9  -0.160   0.167        0
    79  G10_79         -4    3    9  -0.160   0.167        0
    80  G10_80         -4    3    9  -0.160   0.167        0
    81  G10_81         -4    3    9  -0.160   0.167        0
    82  G10_82         -4    3    9  -0.160   0.167        0
    83  G10_83         -4    3    9  -0.160   0.167        0
    84  G10_84         -4    3    9  -0.160   0.167        0
    85  G10_85         -4    3    9  -0.160   0.167        0
    86  G10_86         -4    3    9  -0.160   0.167        0
    87  G10_87         -4    3    9  -0.160   0.167        0
    88  G10_88         -4    3    9  -0.160   0.167        0
    89  G10_89         -4    3    9  -0.160   0.167        0
    90  G10_90         -4    3    9  -0.160   0.167        0
    91  G10_91         -4    3    9  -0.160   0.167        0
    92  G10_92         -4    3    9  -0.160   0.167        0
    93  G10_93         -4    3    9  -0.160   0.167        0
    94  G10_94         -4    3    9  -0.160   0.167        0
    95  G10_95         -4    3    9  -0.160   0.167        0
    96  G10_96         -4    3    9  -0.160   0.167        0
    97  G10_97         -4    3    9  -0.160   0.167        0
    98  G10_98         -4    3    9  -0.160   0.167        0
    99  G10_99         -4    3    9  -0.160   0.167        0
   100  G10_100        -4    3    9  -0.160   0.167        0
   101  G10_101        -4    3    9  -0.160   0.167        0
   102  G10_102        -4    3    9  -0.160   0.167        0
   103  G10_103        -4    3    9  -0.160   0.167        0
   104  G10_104        -4    3    9  -0.160   0.167        0
   105  G10_105        -4    3    9  -0.160   0.167        0
   106  G10_106        -4    3    9  -0.160   0.167        0
   107  G10_107        -4    3    9  -0.160   0.167        0
   108  G10_108        -4    3    9  -0.160   0.167        0
   109  G10_109        -4    3    9  -0.160   0.167        0
   110  G10_110        -4    3    9  -0.160   0.167        0
   111  G10_111        -4    3    9  -0.160   0.167        0
   112  G10_112        -4    3    9  -0.160   0.167        0
   113  G10_113        -4    3    9  -0.160   0.167        0
   114  G10_114        -4    3    9  -0.160   0.167        0
   115  G10_115        -4    3    9  -0.160   0.167        0
   116  G10_116        -4    3    9  -0.160   0.167        0
   117  G10_117        -4    3    9  -0.160   0.167        0
   118  G10_118        -4    3    9  -0.160   0.167        0
   119  G10_119        -4    3    9  -0.160   0.167        0
   120  G10_120        -4    3    9  -0.160   0.167        0
   121  G10_121        -4    3    9  -0.160   0.167        0
   122  G10_122        -4    3    9  -0.160   0.167        0
   123  G10_123        -4    3    9  -0.160   0.167        0
   124  G10_124        -4    3    9  -0.160   0.167        0
   125  G10_125        -4    3    9  -0.160   0.167        0
   126  G10_126        -4    3    9  -0.160   0.167        0
   127  G10_127        -4    3    9  -0.160   0.167        0
   128  G10_128        -4    3    9  -0.160   0.167        0
   129  G10_129        -4    3    9  -0.160   0.167        0
   130  G10_130        -4    3    9  -0.160   0.167        0
   131  G10_131        -4    3    9  -0.160   0.167        0
   132  G10_132        -4    3    9  -0.160   0.167        0
   133  G11_1          -4    8   14  -0.376  -0.030        0
   134  G11_2          -4    8   14  -0.376  -0.030        0
   135  G11_3          -4    8   14  -0.376  -0.030        0
   136  G11_4          -4    8   14  -0.376  -0.030        0
   137  G11_5          -4    8   14  -0.376  -0.030        0
   138  G11_6          -4    8   14  -0.376  -0.030        0
   139  G11_7          -4    8   14  -0.376  -0.030        0
   140  G11_8          -4    8   14  -0.376  -0.030        0
   141  G11_9          -4    8   14  -0.376  -0.030        0
   142  G11_10         -4    8   14  -0.376  -0.030        0
   143  G11_11         -4    8   14  -0.376  -0.030        0
   144  G11_12         -4    8   14  -0.376  -0.030        0
   145  G11_13         -4    8   14  -0.376  -0.030        0
   146  G11_14         -4    8   14  -0.376  -0.030        0
   147  G11_15         -4    8   14  -0.376  -0.030        0
   148  G11_16         -4    8   14  -0.376  -0.030        0
   149  G11_17         -4    8   14  -0.376  -0.030        0
   150  G11_18         -4    8   14  -0.376  -0.030        0
   151  G11_19         -4    8   14  -0.376  -0.030        0
   152  G11_20         -4    8   14  -0.376  -0.030        0
   153  G11_21         -4    8   14  -0.376  -0.030        0
   154  G11_22         -4    8   14  -0.376  -0.030        0
   155  G11_23         -4    8   14  -0.376  -0.030        0
   156  G11_24         -4    8   14  -0.376  -0.030        0
   157  G11_25         -4    8   14  -0.376  -0.030        0
   158  G11_26         -4    8   14  -0.376  -0.030        0
   159  G11_27         -4    8   14  -0.376  -0.030        0
   160  G11_28         -4    8   14  -0.376  -0.030        0
   161  G11_29         -4    8   14  -0.376  -0.030        0
   162  G11_30         -4    8   14  -0.376  -0.030        0
   163  G11_31         -4    8   14  -0.376  -0.030        0
   164  G11_32         -4    8   14  -0.376  -0.030        0
   165  G11_33         -4    8   14  -0.376  -0.030        0
   166  G11_34         -4    8   14  -0.376  -0.030        0
   167  G11_35         -4    8   14  -0.376  -0.030        0
   168  G11_36         -4    8   14  -0.376  -0.030        0
   169  G11_37         -4    8   14  -0.376  -0.030        0
   170  G11_38         -4    8   14  -0.376  -0.030        0
   171  G11_39         -4    8   14  -0.376  -0.030        0
   172  G11_40         -4    8   14  -0.376  -0.030        0
   173  G11_41         -4    8   14  -0.376  -0.030        0
   174  G11_42         -4    8   14  -0.376  -0.030        0
   175  G11_43         -4    8   14  -0.376  -0.030        0
   176  G11_44         -4    8   14  -0.376  -0.030        0
   177  G11_45         -4    8   14  -0.376  -0.030        0
   178  G11_46         -4    8   14  -0.376  -0.030        0
   179  G11_47         -4    8   14  -0.376  -0.030        0
   180  G11_48         -4    8   14  -0.376  -0.030        0
   181  G11_49         -4    8   14  -0.376  -0.030        0
   182  G11_50         -4    8   14  -0.376  -0.030        0
   183  G11_51         -4    8   14  -0.376  -0.030        0
   184  G11_52         -4    8   14  -0.376  -0.030        0
   185  G11_53         -4    8   14  -0.376  -0.030        0
   186  G11_54         -4    8   14  -0.376  -0.030        0
   187  G11_55         -4    8   14  -0.376  -0.030        0
   188  G11_56         -4    8   14  -0.376  -0.030        0
   189  G11_57         -4    8   14  -0.376  -0.030        0
   190  G11_58         -4    8   14  -0.376  -0.030        0
   191  G11_59         -4    8   14  -0.376  -0.030        0
   192  G11_60         -4    8   14  -0.376  -0.030        0
   193  G11_61         -4    8   14  -0.376  -0.030        0
   194  G11_62         -4    8   14  -0.376  -0.030        0
   195  G11_63         -4    8   14  -0.376  -0.030        0
   196  G11_64         -4    8   14  -0.376  -0.030        0
   197  G11_65         -4    8   14  -0.376  -0.030        0
   198  G11_66         -4    8   14  -0.376  -0.030        0
   199  G11_67         -4    8   14  -0.376  -0.030        0
   200  G11_68         -4    8   14  -0.376  -0.030        0
   201  G11_69         -4    8   14  -0.376  -0.030        0
   202  G11_70         -4    8   14  -0.376  -0.030        0
   203  G11_71         -4    8   14  -0.376  -0.030        0
   204  G11_72         -4    8   14  -0.376  -0.030        0
   205  G11_73         -4    8   14  -0.376  -0.030        0
   206  G11_74         -4    8   14  -0.376  -0.030        0
   207  G11_75         -4    8   14  -0.376  -0.030        0
   208  G11_76         -4    8   14  -0.376  -0.030        0
   209  G11_77         -4    8   14  -0.376  -0.030        0
   210  G11_78         -4    8   14  -0.376  -0.030        0
   211  G11_79         -4    8   14  -0.376  -0.030        0
   212  G11_80         -4    8   14  -0.376  -0.030        0
   213  G11_81         -4    8   14  -0.376  -0.030        0
   214  G11_82         -4    8   14  -0.376  -0.030        0
   215  G11_83         -4    8   14  -0.376  -0.030        0
   216  G11_84         -4    8   14  -0.376  -0.030        0
   217  G11_85         -4    8   14  -0.376  -0.030        0
   218  G11_86         -4    8   14  -0.376  -0.030        0
   219  G11_87         -4    8   14  -0.376  -0.030        0
   220  G11_88         -4    8   14  -0.376  -0.030        0
   221  G11_89         -4    8   14  -0.376  -0.030        0
   222  G11_90         -4    8   14  -0.376  -0.030        0
   223  G11_91         -4    8   14  -0.376  -0.030        0
   224  G11_92         -4    8   14  -0.376  -0.030        0
   225  G11_93         -4    8   14  -0.376  -0.030        0
   226  G11_94         -4    8   14  -0.376  -0.030        0
   227  G11_95         -4    8   14  -0.376  -0.030        0
   228  G11_96         -4    8   14  -0.376  -0.030        0
   229  G11_97         -4    8   14  -0.376  -0.030        0
   230  G11_98         -4    8   14  -0.376  -0.030        0
   231  G11_99         -4    8   14  -0.376  -0.030        0
   232  G11_100        -4    8   14  -0.376  -0.030        0
   233  G11_101        -4    8   14  -0.376  -0.030        0
   234  G11_102        -4    8   14  -0.376  -0.030        0
   235  G11_103        -4    8   14  -0.376  -0.030        0
   236  G11_104        -4    8   14  -0.376  -0.030        0
   237  G11_105        -4    8   14  -0.376  -0.030        0
   238  G11_106        -4    8   14  -0.376  -0.030        0
   239  G11_107        -4    8   14  -0.376  -0.030        0
   240  G11_108        -4    8   14  -0.376  -0.030        0
   241  G11_109        -4    8   14  -0.376  -0.030        0
   242  G11_110        -4    8   14  -0.376  -0.030        0
   243  G11_111        -4    8   14  -0.376  -0.030        0
   244  G11_112        -4    8   14  -0.376  -0.030        0
   245  G11_113        -4    8   14  -0.376  -0.030        0
   246  G11_114        -4    8   14  -0.376  -0.030        0
   247  G11_115        -4    8   14  -0.376  -0.030        0
   248  G11_116        -4    8   14  -0.376  -0.030        0
   249  G11_117        -4    8   14  -0.376  -0.030        0
   250  G11_118        -4    8   14  -0.376  -0.030        0
   251  G11_119        -4    8   14  -0.376  -0.030        0
   252  G11_120        -4    8   14  -0.376  -0.030        0
   253  G11_121        -4    8   14  -0.376  -0.030        0
   254  G11_122        -4    8   14  -0.376  -0.030        0
   255  G11_123        -4    8   14  -0.376  -0.030        0
   256  G11_124        -4    8   14  -0.376  -0.030        0
   257  G11_125        -4    8   14  -0.376  -0.030        0
   258  G11_126        -4    8   14  -0.376  -0.030        0
   259  G11_127        -4    8   14  -0.376  -0.030        0
   260  G11_128        -4    8   14  -0.376  -0.030        0
   261  G11_129        -4    8   14  -0.376  -0.030        0
   262  G11_130        -4    8   14  -0.376  -0.030        0
   263  G11_131        -4    8   14  -0.376  -0.030        0
   264  G11_132        -4    8   14  -0.376  -0.030        0
   265  G13_1          -3    9    5  -0.253  -0.280        0
   266  G13_2          -3    9    5  -0.253  -0.280        0
   267  G13_3          -3    9    5  -0.253  -0.280        0
   268  G13_4          -3    9    5  -0.253  -0.280        0
   269  G13_5          -3    9    5  -0.253  -0.280        0
   270  G13_6          -3    9    5  -0.253  -0.280        0
   271  G13_7          -3    9    5  -0.253  -0.280        0
   272  G13_8          -3    9    5  -0.253  -0.280        0
   273  G13_9          -3    9    5  -0.253  -0.280        0
   274  G13_10         -3    9    5  -0.253  -0.280        0
   275  G13_11         -3    9    5  -0.253  -0.280        0
   276  G13_12         -3    9    5  -0.253  -0.280        0
   277  G13_13         -3    9    5  -0.253  -0.280        0
   278  G13_14         -3    9    5  -0.253  -0.280        0
   279  G13_15         -3    9    5  -0.253  -0.280        0
   280  G13_16         -3    9    5  -0.253  -0.280        0
   281  G13_17         -3    9    5  -0.253  -0.280        0
   282  G13_18         -3    9    5  -0.253  -0.280        0
   283  G13_19         -3    9    5  -0.253  -0.280        0
   284  G13_20         -3    9    5  -0.253  -0.280        0
   285  G13_21         -3    9    5  -0.253  -0.280        0
   286  G13_22         -3    9    5  -0.253  -0.280        0
   287  G13_23         -3    9    5  -0.253  -0.280        0
   288  G13_24         -3    9    5  -0.253  -0.280        0
   289  G13_25         -3    9    5  -0.253  -0.280        0
   290  G13_26         -3    9    5  -0.253  -0.280        0
   291  G13_27         -3    9    5  -0.253  -0.280        0
   292  G13_28         -3    9    5  -0.253  -0.280        0
   293  G13_29         -3    9    5  -0.253  -0.280        0
   294  G13_30         -3    9    5  -0.253  -0.280        0
   295  G13_31         -3    9    5  -0.253  -0.280        0
   296  G13_32         -3    9    5  -0.253  -0.280        0
   297  G13_33         -3    9    5  -0.253  -0.280        0
   298  G13_34         -3    9    5  -0.253  -0.280        0
   299  G13_35         -3    9    5  -0.253  -0.280        0
   300  G13_36         -3    9    5  -0.253  -0.280        0
   301  G13_37         -3    9    5  -0.253  -0.280        0
   302  G13_38         -3    9    5  -0.253  -0.280        0
   303  G13_39         -3    9    5  -0.253  -0.280        0
   304  G13_40         -3    9    5  -0.253  -0.280        0
   305  G13_41         -3    9    5  -0.253  -0.280        0
   306  G13_42         -3    9    5  -0.253  -0.280        0
   307  G13_43         -3    9    5  -0.253  -0.280        0
   308  G13_44         -3    9    5  -0.253  -0.280        0
   309  G13_45         -3    9    5  -0.253  -0.280        0
   310  G13_46         -3    9    5  -0.253  -0.280        0
   311  G13_47         -3    9    5  -0.253  -0.280        0
   312  G13_48         -3    9    5  -0.253  -0.280        0
   313  G13_49         -3    9    5  -0.253  -0.280        0
   314  G13_50         -3    9    5  -0.253  -0.280        0
   315  G13_51         -3    9    5  -0.253  -0.280        0
   316  G13_52         -3    9    5  -0.253  -0.280        0
   317  G13_53         -3    9    5  -0.253  -0.280        0
   318  G13_54         -3    9    5  -0.253  -0.280        0
   319  G13_55         -3    9    5  -0.253  -0.280        0
   320  G13_56         -3    9    5  -0.253  -0.280        0
   321  G13_57         -3    9    5  -0.253  -0.280        0
   322  G13_58         -3    9    5  -0.253  -0.280        0
   323  G13_59         -3    9    5  -0.253  -0.280        0
   324  G13_60         -3    9    5  -0.253  -0.280        0
   325  G13_61         -3    9    5  -0.253  -0.280        0
   326  G13_62         -3    9    5  -0.253  -0.280        0
   327  G13_63         -3    9    5  -0.253  -0.280        0
   328  G13_64         -3    9    5  -0.253  -0.280        0
   329  G13_65         -3    9    5  -0.253  -0.280        0
   330  G13_66         -3    9    5  -0.253  -0.280        0
   331  G13_67         -3    9    5  -0.253  -0.280        0
   332  G13_68         -3    9    5  -0.253  -0.280        0
   333  G13_69         -3    9    5  -0.253  -0.280        0
   334  G13_70         -3    9    5  -0.253  -0.280        0
   335  G13_71         -3    9    5  -0.253  -0.280        0
   336  G13_72         -3    9    5  -0.253  -0.280        0
   337  G13_73         -3    9    5  -0.253  -0.280        0
   338  G13_74         -3    9    5  -0.253  -0.280        0
   339  G13_75         -3    9    5  -0.253  -0.280        0
   340  G13_76         -3    9    5  -0.253  -0.280        0
   341  G13_77         -3    9    5  -0.253  -0.280        0
   342  G13_78         -3    9    5  -0.253  -0.280        0
   343  G13_79         -3    9    5  -0.253  -0.280        0
   344  G13_80         -3    9    5  -0.253  -0.280        0
   345  G13_81         -3    9    5  -0.253  -0.280        0
   346  G13_82         -3    9    5  -0.253  -0.280        0
   347  G13_83         -3    9    5  -0.253  -0.280        0
   348  G13_84         -3    9    5  -0.253  -0.280        0
   349  G13_85         -3    9    5  -0.253  -0.280        0
   350  G13_86         -3    9    5  -0.253  -0.280        0
   351  G13_87         -3    9    5  -0.253  -0.280        0
   352  G13_88         -3    9    5  -0.253  -0.280        0
   353  G13_89         -3    9    5  -0.253  -0.280        0
   354  G13_90         -3    9    5  -0.253  -0.280        0
   355  G13_91         -3    9    5  -0.253  -0.280        0
   356  G13_92         -3    9    5  -0.253  -0.280        0
   357  G13_93         -3    9    5  -0.253  -0.280        0
   358  G13_94         -3    9    5  -0.253  -0.280        0
   359  G13_95         -3    9    5  -0.253  -0.280        0
   360  G13_96         -3    9    5  -0.253  -0.280        0
   361  G13_97         -3    9    5  -0.253  -0.280        0
   362  G13_98         -3    9    5  -0.253  -0.280        0
   363  G13_99         -3    9    5  -0.253  -0.280        0
   364  G13_100        -3    9    5  -0.253  -0.280        0
   365  G13_101        -3    9    5  -0.253  -0.280        0
   366  G13_102        -3    9    5  -0.253  -0.280        0
   367  G13_103        -3    9    5  -0.253  -0.280        0
   368  G13_104        -3    9    5  -0.253  -0.280        0
   369  G13_105        -3    9    5  -0.253  -0.280        0
   370  G13_106        -3    9    5  -0.253  -0.280        0
   371  G13_107        -3    9    5  -0.253  -0.280        0
   372  G13_108        -3    9    5  -0.253  -0.280        0
   373  G13_109        -3    9    5  -0.253  -0.280        0
   374  G13_110        -3    9    5  -0.253  -0.280        0
   375  G13_111        -3    9    5  -0.253  -0.280        0
   376  G13_112        -3    9    5  -0.253  -0.280        0
   377  G13_113        -3    9    5  -0.253  -0.280        0
   378  G13_114        -3    9    5  -0.253  -0.280        0
   379  G13_115        -3    9    5  -0.253  -0.280        0
   380  G13_116        -3    9    5  -0.253  -0.280        0
   381  G13_117        -3    9    5  -0.253  -0.280        0
   382  G13_118        -3    9    5  -0.253  -0.280        0
   383  G13_119        -3    9    5  -0.253  -0.280        0
   384  G13_120        -3    9    5  -0.253  -0.280        0
   385  G13_121        -3    9    5  -0.253  -0.280        0
   386  G13_122        -3    9    5  -0.253  -0.280        0
   387  G13_123        -3    9    5  -0.253  -0.280        0
   388  G13_124        -3    9    5  -0.253  -0.280        0
   389  G13_125        -3    9    5  -0.253  -0.280        0
   390  G13_126        -3    9    5  -0.253  -0.280        0
   391  G13_127        -3    9    5  -0.253  -0.280        0
   392  G13_128        -3    9    5  -0.253  -0.280        0
   393  G13_129        -3    9    5  -0.253  -0.280        0
   394  G13_130        -3    9    5  -0.253  -0.280        0
   395  G13_131        -3    9    5  -0.253  -0.280        0
   396  G13_132        -3    9    5  -0.253  -0.280        0
   397  G12_1          -4    8    9   0.326  -0.095        0
   398  G12_2          -4    8    9   0.326  -0.095        0
   399  G12_3          -4    8    9   0.326  -0.095        0
   400  G12_4          -4    8    9   0.326  -0.095        0
   401  G12_5          -4    8    9   0.326  -0.095        0
   402  G12_6          -4    8    9   0.326  -0.095        0
   403  G12_7          -4    8    9   0.326  -0.095        0
   404  G12_8          -4    8    9   0.326  -0.095        0
   405  G12_9          -4    8    9   0.326  -0.095        0
   406  G12_10         -4    8    9   0.326  -0.095        0
   407  G12_11         -4    8    9   0.326  -0.095        0
   408  G12_12         -4    8    9   0.326  -0.095        0
   409  G12_13         -4    8    9   0.326  -0.095        0
   410  G12_14         -4    8    9   0.326  -0.095        0
   411  G12_15         -4    8    9   0.326  -0.095        0
   412  G12_16         -4    8    9   0.326  -0.095        0
   413  G12_17         -4    8    9   0.326  -0.095        0
   414  G12_18         -4    8    9   0.326  -0.095        0
   415  G12_19         -4    8    9   0.326  -0.095        0
   416  G12_20         -4    8    9   0.326  -0.095        0
   417  G12_21         -4    8    9   0.326  -0.095        0
   418  G12_22         -4    8    9   0.326  -0.095        0
   419  G12_23         -4    8    9   0.326  -0.095        0
   420  G12_24         -4    8    9   0.326  -0.095        0
   421  G12_25         -4    8    9   0.326  -0.095        0
   422  G12_26         -4    8    9   0.326  -0.095        0
   423  G12_27         -4    8    9   0.326  -0.095        0
   424  G12_28         -4    8    9   0.326  -0.095        0
   425  G12_29         -4    8    9   0.326  -0.095        0
   426  G12_30         -4    8    9   0.326  -0.095        0
   427  G12_31         -4    8    9   0.326  -0.095        0
   428  G12_32         -4    8    9   0.326  -0.095        0
   429  G12_33         -4    8    9   0.326  -0.095        0
   430  G12_34         -4    8    9   0.326  -0.095        0
   431  G12_35         -4    8    9   0.326  -0.095        0
   432  G12_36         -4    8    9   0.326  -0.095        0
   433  G12_37         -4    8    9   0.326  -0.095        0
   434  G12_38         -4    8    9   0.326  -0.095        0
   435  G12_39         -4    8    9   0.326  -0.095        0
   436  G12_40         -4    8    9   0.326  -0.095        0
   437  G12_41         -4    8    9   0.326  -0.095        0
   438  G12_42         -4    8    9   0.326  -0.095        0
   439  G12_43         -4    8    9   0.326  -0.095        0
   440  G12_44         -4    8    9   0.326  -0.095        0
   441  G12_45         -4    8    9   0.326  -0.095        0
   442  G12_46         -4    8    9   0.326  -0.095        0
   443  G12_47         -4    8    9   0.326  -0.095        0
   444  G12_48         -4    8    9   0.326  -0.095        0
   445  G12_49         -4    8    9   0.326  -0.095        0
   446  G12_50         -4    8    9   0.326  -0.095        0
   447  G12_51         -4    8    9   0.326  -0.095        0
   448  G12_52         -4    8    9   0.326  -0.095        0
   449  G12_53         -4    8    9   0.326  -0.095        0
   450  G12_54         -4    8    9   0.326  -0.095        0
   451  G12_55         -4    8    9   0.326  -0.095        0
   452  G12_56         -4    8    9   0.326  -0.095        0
   453  G12_57         -4    8    9   0.326  -0.095        0
   454  G12_58         -4    8    9   0.326  -0.095        0
   455  G12_59         -4    8    9   0.326  -0.095        0
   456  G12_60         -4    8    9   0.326  -0.095        0
   457  G12_61         -4    8    9   0.326  -0.095        0
   458  G12_62         -4    8    9   0.326  -0.095        0
   459  G12_63         -4    8    9   0.326  -0.095        0
   460  G12_64         -4    8    9   0.326  -0.095        0
   461  G12_65         -4    8    9   0.326  -0.095        0
   462  G12_66         -4    8    9   0.326  -0.095        0
   463  G12_67         -4    8    9   0.326  -0.095        0
   464  G12_68         -4    8    9   0.326  -0.095        0
   465  G12_69         -4    8    9   0.326  -0.095        0
   466  G12_70         -4    8    9   0.326  -0.095        0
   467  G12_71         -4    8    9   0.326  -0.095        0
   468  G12_72         -4    8    9   0.326  -0.095        0
   469  G12_73         -4    8    9   0.326  -0.095        0
   470  G12_74         -4    8    9   0.326  -0.095        0
   471  G12_75         -4    8    9   0.326  -0.095        0
   472  G12_76         -4    8    9   0.326  -0.095        0
   473  G12_77         -4    8    9   0.326  -0.095        0
   474  G12_78         -4    8    9   0.326  -0.095        0
   475  G12_79         -4    8    9   0.326  -0.095        0
   476  G12_80         -4    8    9   0.326  -0.095        0
   477  G12_81         -4    8    9   0.326  -0.095        0
   478  G12_82         -4    8    9   0.326  -0.095        0
   479  G12_83         -4    8    9   0.326  -0.095        0
   480  G12_84         -4    8    9   0.326  -0.095        0
   481  G12_85         -4    8    9   0.326  -0.095        0
   482  G12_86         -4    8    9   0.326  -0.095        0
   483  G12_87         -4    8    9   0.326  -0.095        0
   484  G12_88         -4    8    9   0.326  -0.095        0
   485  G12_89         -4    8    9   0.326  -0.095        0
   486  G12_90         -4    8    9   0.326  -0.095        0
   487  G12_91         -4    8    9   0.326  -0.095        0
   488  G12_92         -4    8    9   0.326  -0.095        0
   489  G12_93         -4    8    9   0.326  -0.095        0
   490  G12_94         -4    8    9   0.326  -0.095        0
   491  G12_95         -4    8    9   0.326  -0.095        0
   492  G12_96         -4    8    9   0.326  -0.095        0
   493  G12_97         -4    8    9   0.326  -0.095        0
   494  G12_98         -4    8    9   0.326  -0.095        0
   495  G12_99         -4    8    9   0.326  -0.095        0
   496  G12_100        -4    8    9   0.326  -0.095        0
   497  G12_101        -4    8    9   0.326  -0.095        0
   498  G12_102        -4    8    9   0.326  -0.095        0
   499  G12_103        -4    8    9   0.326  -0.095        0
   500  G12_104        -4    8    9   0.326  -0.095        0
   501  G12_105        -4    8    9   0.326  -0.095        0
   502  G12_106        -4    8    9   0.326  -0.095        0
   503  G12_107        -4    8    9   0.326  -0.095        0
   504  G12_108        -4    8    9   0.326  -0.095        0
   505  G12_109        -4    8    9   0.326  -0.095        0
   506  G12_110        -4    8    9   0.326  -0.095        0
   507  G12_111        -4    8    9   0.326  -0.095        0
   508  G12_112        -4    8    9   0.326  -0.095        0
   509  G12_113        -4    8    9   0.326  -0.095        0
   510  G12_114        -4    8    9   0.326  -0.095        0
   511  G12_115        -4    8    9   0.326  -0.095        0
   512  G12_116        -4    8    9   0.326  -0.095        0
   513  G12_117        -4    8    9   0.326  -0.095        0
   514  G12_118        -4    8    9   0.326  -0.095        0
   515  G12_119        -4    8    9   0.326  -0.095        0
   516  G12_120        -4    8    9   0.326  -0.095        0
   517  G12_121        -4    8    9   0.326  -0.095        0
   518  G12_122        -4    8    9   0.326  -0.095        0
   519  G12_123        -4    8    9   0.326  -0.095        0
   520  G12_124        -4    8    9   0.326  -0.095        0
   521  G12_125        -4    8    9   0.326  -0.095        0
   522  G12_126        -4    8    9   0.326  -0.095        0
   523  G12_127        -4    8    9   0.326  -0.095        0
   524  G12_128        -4    8    9   0.326  -0.095        0
   525  G12_129        -4    8    9   0.326  -0.095        0
   526  G12_130        -4    8    9   0.326  -0.095        0
   527  G12_131        -4    8    9   0.326  -0.095        0
   528  G12_132        -4    8    9   0.326  -0.095        0
   529  G21_1          -3   13    3   0.035   0.054        0
   530  G21_2          -3   13    3   0.035   0.054        0
   531  G21_3          -3   13    3   0.035   0.054        0
   532  G21_4          -3   13    3   0.035   0.054        0
   533  G21_5          -3   13    3   0.035   0.054        0
   534  G21_6          -3   13    3   0.035   0.054        0
   535  G21_7          -3   13    3   0.035   0.054        0
   536  G21_8          -3   13    3   0.035   0.054        0
   537  G21_9          -3   13    3   0.035   0.054        0
   538  G21_10         -3   13    3   0.035   0.054        0
   539  G21_11         -3   13    3   0.035   0.054        0
   540  G21_12         -3   13    3   0.035   0.054        0
   541  G21_13         -3   13    3   0.035   0.054        0
   542  G21_14         -3   13    3   0.035   0.054        0
   543  G21_15         -3   13    3   0.035   0.054        0
   544  G21_16         -3   13    3   0.035   0.054        0
   545  G21_17         -3   13    3   0.035   0.054        0
   546  G21_18         -3   13    3   0.035   0.054        0
   547  G21_19         -3   13    3   0.035   0.054        0
   548  G21_20         -3   13    3   0.035   0.054        0
   549  G21_21         -3   13    3   0.035   0.054        0
   550  G21_22         -3   13    3   0.035   0.054        0
   551  G21_23         -3   13    3   0.035   0.054        0
   552  G21_24         -3   13    3   0.035   0.054        0
   553  G21_25         -3   13    3   0.035   0.054        0
   554  G21_26         -3   13    3   0.035   0.054        0
   555  G21_27         -3   13    3   0.035   0.054        0
   556  G21_28         -3   13    3   0.035   0.054        0
   557  G21_29         -3   13    3   0.035   0.054        0
   558  G21_30         -3   13    3   0.035   0.054        0
   559  G21_31         -3   13    3   0.035   0.054        0
   560  G21_32         -3   13    3   0.035   0.054        0
   561  G21_33         -3   13    3   0.035   0.054        0
   562  G21_34         -3   13    3   0.035   0.054        0
   563  G21_35         -3   13    3   0.035   0.054        0
   564  G21_36         -3   13    3   0.035   0.054        0
   565  G21_37         -3   13    3   0.035   0.054        0
   566  G21_38         -3   13    3   0.035   0.054        0
   567  G21_39         -3   13    3   0.035   0.054        0
   568  G21_40         -3   13    3   0.035   0.054        0
   569  G21_41         -3   13    3   0.035   0.054        0
   570  G21_42         -3   13    3   0.035   0.054        0
   571  G21_43         -3   13    3   0.035   0.054        0
   572  G21_44         -3   13    3   0.035   0.054        0
   573  G21_45         -3   13    3   0.035   0.054        0
   574  G21_46         -3   13    3   0.035   0.054        0
   575  G21_47         -3   13    3   0.035   0.054        0
   576  G21_48         -3   13    3   0.035   0.054        0
   577  G21_49         -3   13    3   0.035   0.054        0
   578  G21_50         -3   13    3   0.035   0.054        0
   579  G21_51         -3   13    3   0.035   0.054        0
   580  G21_52         -3   13    3   0.035   0.054        0
   581  G21_53         -3   13    3   0.035   0.054        0
   582  G21_54         -3   13    3   0.035   0.054        0
   583  G21_55         -3   13    3   0.035   0.054        0
   584  G21_56         -3   13    3   0.035   0.054        0
   585  G21_57         -3   13    3   0.035   0.054        0
   586  G21_58         -3   13    3   0.035   0.054        0
   587  G21_59         -3   13    3   0.035   0.054        0
   588  G21_60         -3   13    3   0.035   0.054        0
   589  G21_61         -3   13    3   0.035   0.054        0
   590  G21_62         -3   13    3   0.035   0.054        0
   591  G21_63         -3   13    3   0.035   0.054        0
   592  G21_64         -3   13    3   0.035   0.054        0
   593  G21_65         -3   13    3   0.035   0.054        0
   594  G21_66         -3   13    3   0.035   0.054        0
   595  G21_67         -3   13    3   0.035   0.054        0
   596  G21_68         -3   13    3   0.035   0.054        0
   597  G21_69         -3   13    3   0.035   0.054        0
   598  G21_70         -3   13    3   0.035   0.054        0
   599  G21_71         -3   13    3   0.035   0.054        0
   600  G21_72         -3   13    3   0.035   0.054        0
   601  G21_73         -3   13    3   0.035   0.054        0
   602  G21_74         -3   13    3   0.035   0.054        0
   603  G21_75         -3   13    3   0.035   0.054        0
   604  G21_76         -3   13    3   0.035   0.054        0
   605  G21_77         -3   13    3   0.035   0.054        0
   606  G21_78         -3   13    3   0.035   0.054        0
   607  G21_79         -3   13    3   0.035   0.054        0
   608  G21_80         -3   13    3   0.035   0.054        0
   609  G21_81         -3   13    3   0.035   0.054        0
   610  G21_82         -3   13    3   0.035   0.054        0
   611  G21_83         -3   13    3   0.035   0.054        0
   612  G21_84         -3   13    3   0.035   0.054        0
   613  G21_85         -3   13    3   0.035   0.054        0
   614  G21_86         -3   13    3   0.035   0.054        0
   615  G21_87         -3   13    3   0.035   0.054        0
   616  G21_88         -3   13    3   0.035   0.054        0
   617  G21_89         -3   13    3   0.035   0.054        0
   618  G21_90         -3   13    3   0.035   0.054        0
   619  G21_91         -3   13    3   0.035   0.054        0
   620  G21_92         -3   13    3   0.035   0.054        0
   621  G21_93         -3   13    3   0.035   0.054        0
   622  G21_94         -3   13    3   0.035   0.054        0
   623  G21_95         -3   13    3   0.035   0.054        0
   624  G21_96         -3   13    3   0.035   0.054        0
   625  G21_97         -3   13    3   0.035   0.054        0
   626  G21_98         -3   13    3   0.035   0.054        0
   627  G21_99         -3   13    3   0.035   0.054        0
   628  G21_100        -3   13    3   0.035   0.054        0
   629  G21_101        -3   13    3   0.035   0.054        0
   630  G21_102        -3   13    3   0.035   0.054        0
   631  G21_103        -3   13    3   0.035   0.054        0
   632  G21_104        -3   13    3   0.035   0.054        0
   633  G21_105        -3   13    3   0.035   0.054        0
   634  G21_106        -3   13    3   0.035   0.054        0
   635  G21_107        -3   13    3   0.035   0.054        0
   636  G21_108        -3   13    3   0.035   0.054        0
   637  G21_109        -3   13    3   0.035   0.054        0
   638  G21_110        -3   13    3   0.035   0.054        0
   639  G21_111        -3   13    3   0.035   0.054        0
   640  G21_112        -3   13    3   0.035   0.054        0
   641  G21_113        -3   13    3   0.035   0.054        0
   642  G21_114        -3   13    3   0.035   0.054        0
   643  G21_115        -3   13    3   0.035   0.054        0
   644  G21_116        -3   13    3   0.035   0.054        0
   645  G21_117        -3   13    3   0.035   0.054        0
   646  G21_118        -3   13    3   0.035   0.054        0
   647  G21_119        -3   13    3   0.035   0.054        0
   648  G21_120        -3   13    3   0.035   0.054        0
   649  G21_121        -3   13    3   0.035   0.054        0
   650  G21_122        -3   13    3   0.035   0.054        0
   651  G21_123        -3   13    3   0.035   0.054        0
   652  G21_124        -3   13    3   0.035   0.054        0
   653  G21_125        -3   13    3   0.035   0.054        0
   654  G21_126        -3   13    3   0.035   0.054        0
   655  G21_127        -3   13    3   0.035   0.054        0
   656  G21_128        -3   13    3   0.035   0.054        0
   657  G21_129        -3   13    3   0.035   0.054        0
   658  G21_130        -3   13    3   0.035   0.054        0
   659  G21_131        -3   13    3   0.035   0.054        0
   660  G21_132        -3   13    3   0.035   0.054        0
1
                            STRESS PERIOD NO.    1, LENGTH =   86400.00    
                            -----------------------------------------------

                              NUMBER OF TIME STEPS =     1

                               MULTIPLIER FOR DELT =     1.000

                            INITIAL TIME STEP SIZE =   86400.00    



                           RECHARGE
 READING ON UNIT   24 WITH FORMAT: (FREE)              

            1           2           3           4           5           6           7           8           9          10
           11          12          13          14          15          16          17
 ........................................................................................................................
   1   5.0000E-09  5.0000E-09  5.0000E-09  5.0000E-09  5.0000E-09  5.0000E-09  5.0000E-09  5.0000E-09  5.0000E-09  5.0000E-09
       5.0000E-09  5.0000E-09  5.0000E-09   0.000       0.000       0.000       0.000    
   2   5.0000E-09  5.0000E-09  5.0000E-09  5.0000E-09  5.0000E-09  5.0000E-09  5.0000E-09  5.0000E-09  5.0000E-09  5.0000E-09
       5.0000E-09  5.0000E-09  5.0000E-09   0.000       0.000       0.000       0.000    
   3   5.0000E-09  5.0000E-09  5.0000E-09  5.0000E-09  5.0000E-09  5.0000E-09  5.0000E-09  5.0000E-09  5.0000E-09  5.0000E-09
       5.0000E-09  5.0000E-09  5.0000E-09   0.000       0.000       0.000       0.000    
   4   5.0000E-09  5.0000E-09  5.0000E-09  5.0000E-09  5.0000E-09  5.0000E-09  5.0000E-09  5.0000E-09  5.0000E-09  5.0000E-09
       5.0000E-09  5.0000E-09  5.0000E-09   0.000       0.000       0.000       0.000    
   5   5.0000E-09  5.0000E-09  5.0000E-09  5.0000E-09  5.0000E-09  5.0000E-09  5.0000E-09  5.0000E-09  5.0000E-09  5.0000E-09
       5.0000E-09   0.000       0.000       0.000       0.000       0.000       0.000    
   6   5.0000E-09  5.0000E-09  5.0000E-09  5.0000E-09  5.0000E-09  5.0000E-09  5.0000E-09  5.0000E-09  5.0000E-09  5.0000E-09
       5.0000E-09  5.0000E-09  5.0000E-09  5.0000E-09  5.0000E-09  5.0000E-09  5.0000E-09
   7   5.0000E-09  5.0000E-09  5.0000E-09  5.0000E-09  5.0000E-09  5.0000E-09  5.0000E-09  5.0000E-09  5.0000E-09  5.0000E-09
       5.0000E-09  5.0000E-09  5.0000E-09  5.0000E-09  5.0000E-09  5.0000E-09  5.0000E-09
   8   5.0000E-09  5.0000E-09  5.0000E-09  5.0000E-09  5.0000E-09  5.0000E-09  5.0000E-09  5.0000E-09  5.0000E-09  5.0000E-09
       5.0000E-09  5.0000E-09  5.0000E-09  5.0000E-09  5.0000E-09  5.0000E-09  5.0000E-09
   9   5.0000E-09  5.0000E-09  5.0000E-09  5.0000E-09  5.0000E-09  5.0000E-09  5.0000E-09  5.0000E-09  5.0000E-09  5.0000E-09
       5.0000E-09  5.0000E-09  5.0000E-09  5.0000E-09  5.0000E-09  5.0000E-09  5.0000E-09
  10   5.0000E-09  5.0000E-09  5.0000E-09  5.0000E-09  5.0000E-09  5.0000E-09  5.0000E-09  5.0000E-09  5.0000E-09  5.0000E-09
       5.0000E-09  5.0000E-09  5.0000E-09  5.0000E-09  5.0000E-09  5.0000E-09  5.0000E-09
  11   5.0000E-09  5.0000E-09  5.0000E-09  5.0000E-09  5.0000E-09  5.0000E-09  5.0000E-09  5.0000E-09  5.0000E-09  5.0000E-09
       5.0000E-09  5.0000E-09  5.0000E-09  5.0000E-09  5.0000E-09  5.0000E-09  5.0000E-09
  12   5.0000E-09  5.0000E-09  5.0000E-09  5.0000E-09  5.0000E-09  5.0000E-09  5.0000E-09  5.0000E-09  5.0000E-09  5.0000E-09
       5.0000E-09  5.0000E-09  5.0000E-09  5.0000E-09  5.0000E-09  5.0000E-09  5.0000E-09
  13   5.0000E-09  5.0000E-09  5.0000E-09  5.0000E-09  5.0000E-09  5.0000E-09  5.0000E-09  5.0000E-09  5.0000E-09  5.0000E-09
       5.0000E-09  5.0000E-09  5.0000E-09  5.0000E-09  5.0000E-09  5.0000E-09  5.0000E-09
  14   5.0000E-09  5.0000E-09  5.0000E-09  5.0000E-09  5.0000E-09  5.0000E-09  5.0000E-09  5.0000E-09  5.0000E-09  5.0000E-09
       5.0000E-09  5.0000E-09  5.0000E-09  5.0000E-09  5.0000E-09  5.0000E-09  5.0000E-09
  15   5.0000E-09  5.0000E-09  5.0000E-09  5.0000E-09  5.0000E-09  5.0000E-09  5.0000E-09  5.0000E-09  5.0000E-09  5.0000E-09
       5.0000E-09  5.0000E-09  5.0000E-09  5.0000E-09  5.0000E-09  5.0000E-09  5.0000E-09
  16   5.0000E-09  5.0000E-09  5.0000E-09  5.0000E-09  5.0000E-09  5.0000E-09  5.0000E-09  5.0000E-09  5.0000E-09  5.0000E-09
       5.0000E-09  5.0000E-09  5.0000E-09  5.0000E-09  5.0000E-09  5.0000E-09  5.0000E-09
  17   5.0000E-09  5.0000E-09  5.0000E-09  5.0000E-09  5.0000E-09  5.0000E-09  5.0000E-09  5.0000E-09  5.0000E-09  5.0000E-09
       5.0000E-09  5.0000E-09  5.0000E-09  5.0000E-09  5.0000E-09  5.0000E-09  5.0000E-09
  18   5.0000E-09  5.0000E-09  5.0000E-09  5.0000E-09  5.0000E-09  5.0000E-09  5.0000E-09  5.0000E-09  5.0000E-09  5.0000E-09
       5.0000E-09  5.0000E-09  5.0000E-09  5.0000E-09  5.0000E-09  5.0000E-09  5.0000E-09
  19   5.0000E-09  5.0000E-09  5.0000E-09  5.0000E-09  5.0000E-09  5.0000E-09  5.0000E-09  5.0000E-09  5.0000E-09  5.0000E-09
       5.0000E-09  5.0000E-09  5.0000E-09  5.0000E-09  5.0000E-09  5.0000E-09  5.0000E-09
  20   5.0000E-09  5.0000E-09  5.0000E-09  5.0000E-09  5.0000E-09  5.0000E-09  5.0000E-09  5.0000E-09  5.0000E-09  5.0000E-09
       5.0000E-09  5.0000E-09  5.0000E-09  5.0000E-09  5.0000E-09  5.0000E-09  5.0000E-09
  21   5.0000E-09  5.0000E-09  5.0000E-09  5.0000E-09  5.0000E-09  5.0000E-09  5.0000E-09  5.0000E-09  5.0000E-09  5.0000E-09
       5.0000E-09  5.0000E-09  5.0000E-09  5.0000E-09  5.0000E-09  5.0000E-09  5.0000E-09
  22   5.0000E-09  5.0000E-09  5.0000E-09  5.0000E-09  5.0000E-09  5.0000E-09  5.0000E-09  5.0000E-09  5.0000E-09  5.0000E-09
       5.0000E-09  5.0000E-09  5.0000E-09  5.0000E-09  5.0000E-09  5.0000E-09  5.0000E-09

 CHD NO.   LAYER   ROW   COL    START HEAD        END HEAD         IFACE           
 ----------------------------------------------------------------------------------
      1      4      1      1       110.7           110.7           0.000    
      2      5      1      1       110.7           110.7           0.000    
      3      4      1      2       110.7           110.7           0.000    
      4      5      1      2       110.7           110.7           0.000    
      5      4      1      3       110.7           110.7           0.000    
      6      5      1      3       110.7           110.7           0.000    
      7      4      1      4       110.7           110.7           0.000    
      8      5      1      4       110.7           110.7           0.000    
      9      4      1      5       110.7           110.7           0.000    
     10      5      1      5       110.7           110.7           0.000    
     11      4      1      6       110.7           110.7           0.000    
     12      5      1      6       110.7           110.7           0.000    
     13      4      1      7       110.7           110.7           0.000    
     14      5      1      7       110.7           110.7           0.000    
     15      4      1      8       110.7           110.7           0.000    
     16      5      1      8       110.7           110.7           0.000    
     17      4      1      9       110.7           110.7           0.000    
     18      5      1      9       110.7           110.7           0.000    
     19      4      1     10       110.7           110.7           0.000    
     20      5      1     10       110.7           110.7           0.000    
     21      4      1     11       110.7           110.7           0.000    
     22      5      1     11       110.7           110.7           0.000    
     23      4      1     12       110.7           110.7           0.000    
     24      5      1     12       110.7           110.7           0.000    
     25      4      1     13       110.7           110.7           0.000    
     26      5      1     13       110.7           110.7           0.000    
     27      4      1     14       110.7           110.7           0.000    
     28      5      1     14       110.7           110.7           0.000    
     29      4      1     15       110.7           110.7           0.000    
     30      5      1     15       110.7           110.7           0.000    
     31      4      1     16       110.7           110.7           0.000    
     32      5      1     16       110.7           110.7           0.000    
     33      4      1     17       110.7           110.7           0.000    
     34      5      1     17       110.7           110.7           0.000    
     35      4     17     17       110.7           110.5           0.000    
     36      5     17     17       110.7           110.5           0.000    
     37      4     18     17       110.7           110.5           0.000    
     38      5     18     17       110.7           110.5           0.000    
     39      4     18     16       110.7           110.5           0.000    
     40      5     18     16       110.7           110.5           0.000    
     41      4     19     16       110.7           110.5           0.000    
     42      5     19     16       110.7           110.5           0.000    
     43      4     19     15       110.7           110.5           0.000    
     44      5     19     15       110.7           110.5           0.000    
     45      4     20     15       110.7           110.5           0.000    
     46      5     20     15       110.7           110.5           0.000    
     47      4     20     14       110.6           110.5           0.000    
     48      5     20     14       110.6           110.5           0.000    
     49      4     20     13       110.6           110.5           0.000    
     50      5     20     13       110.6           110.5           0.000    
     51      4     20     12       110.6           110.5           0.000    
     52      5     20     12       110.6           110.5           0.000    
     53      4     20     11       110.6           110.5           0.000    
     54      5     20     11       110.6           110.5           0.000    
     55      4     21     11       110.6           110.5           0.000    
     56      5     21     11       110.6           110.5           0.000    
     57      4     21     10       110.6           110.5           0.000    
     58      5     21     10       110.6           110.5           0.000    
     59      4     21      9       110.6           110.5           0.000    
     60      5     21      9       110.6           110.5           0.000    
     61      4     21      8       110.6           110.5           0.000    
     62      5     21      8       110.6           110.5           0.000    
     63      4     21      7       110.6           110.5           0.000    
     64      5     21      7       110.6           110.5           0.000    
     65      4     21      6       110.6           110.5           0.000    
     66      5     21      6       110.6           110.5           0.000    
     67      4     21      5       110.6           110.5           0.000    
     68      5     21      5       110.6           110.5           0.000    
     69      4     22      5       110.6           110.5           0.000    
     70      5     22      5       110.6           110.5           0.000    
     71      4     22      4       110.6           110.5           0.000    
     72      5     22      4       110.6           110.5           0.000    
     73      4     22      3       110.6           110.5           0.000    
     74      5     22      3       110.6           110.5           0.000    
     75      4     22      2       110.6           110.5           0.000    
     76      5     22      2       110.6           110.5           0.000    
     77      4     22      1       110.6           110.5           0.000    
     78      5     22      1       110.6           110.5           0.000    


     78 TIME-VARIANT SPECIFIED-HEAD CELLS

 SOLVING FOR HEAD 

 CELL CONVERSIONS FOR ITER.=  1  LAYER=  1  STEP=  1  PERIOD=   1   (ROW,COL)
    DRY(  2,  1)   DRY(  2,  2)   DRY(  2,  3)   DRY(  2,  4)   DRY(  2,  5)   
    DRY(  2,  6)   DRY(  2,  7)   DRY(  2,  8)   DRY(  2,  9)   DRY(  2, 10)   
    DRY(  2, 11)   DRY(  2, 12)   DRY(  2, 13)   DRY(  2, 14)   DRY(  2, 15)   
    DRY(  2, 16)   DRY(  2, 17)   DRY(  3,  1)   DRY(  3,  2)   DRY(  3,  3)   
    DRY(  3,  4)   DRY(  3,  5)   DRY(  3,  6)   DRY(  3,  7)   DRY(  3,  8)   
    DRY(  3,  9)   DRY(  3, 10)   DRY(  3, 11)   DRY(  3, 12)   DRY(  3, 13)   
    DRY(  3, 14)   DRY(  3, 15)   DRY(  3, 16)   DRY(  3, 17)   DRY(  4,  1)   
    DRY(  4,  2)   DRY(  4,  3)   DRY(  4,  4)   DRY(  4,  5)   DRY(  4,  6)   
    DRY(  4,  7)   DRY(  4,  8)   DRY(  4,  9)   DRY(  4, 10)   DRY(  4, 11)   
    DRY(  4, 12)   DRY(  4, 13)   DRY(  4, 14)   DRY(  4, 15)   DRY(  4, 16)   
    DRY(  4, 17)   DRY(  5,  1)   DRY(  5,  2)   DRY(  5,  3)   DRY(  5,  4)   
    DRY(  5,  5)   DRY(  5,  6)   DRY(  5,  7)   DRY(  5,  8)   DRY(  5,  9)   
    DRY(  5, 10)   DRY(  5, 11)   DRY(  5, 12)   DRY(  5, 13)   DRY(  5, 14)   
    DRY(  5, 15)   DRY(  5, 16)   DRY(  5, 17)   DRY(  6,  1)   DRY(  6,  2)   
    DRY(  6,  3)   DRY(  6,  4)   DRY(  6,  5)   DRY(  6,  6)   DRY(  6,  7)   
    DRY(  6,  8)   DRY(  6,  9)   DRY(  6, 10)   DRY(  6, 11)   DRY(  6, 12)   
    DRY(  6, 13)   DRY(  6, 14)   DRY(  6, 15)   DRY(  6, 16)   DRY(  6, 17)   
    DRY(  7,  1)   DRY(  7,  2)   DRY(  7,  3)   DRY(  7,  4)   DRY(  7,  5)   
    DRY(  7,  6)   DRY(  7,  7)   DRY(  7,  8)   DRY(  7,  9)   DRY(  7, 10)   
    DRY(  7, 11)   DRY(  7, 12)   DRY(  7, 13)   DRY(  7, 14)   DRY(  7, 15)   
    DRY(  7, 16)   DRY(  7, 17)   DRY(  8,  1)   DRY(  8,  2)   DRY(  8,  3)   
    DRY(  8,  4)   DRY(  8,  5)   DRY(  8,  6)   DRY(  8,  7)   DRY(  8,  8)   
    DRY(  8,  9)   DRY(  8, 10)   DRY(  8, 11)   DRY(  8, 12)   DRY(  8, 13)   
    DRY(  8, 14)   DRY(  8, 15)   DRY(  8, 16)   DRY(  8, 17)   DRY(  9,  1)   
    DRY(  9,  2)   DRY(  9,  3)   DRY(  9,  4)   DRY(  9,  5)   DRY(  9,  6)   
    DRY(  9,  7)   DRY(  9,  8)   DRY(  9,  9)   DRY(  9, 10)   DRY(  9, 11)   
    DRY(  9, 12)   DRY(  9, 13)   DRY(  9, 14)   DRY(  9, 15)   DRY(  9, 16)   
    DRY(  9, 17)   DRY( 10,  1)   DRY( 10,  2)   DRY( 10,  3)   DRY( 10,  4)   
    DRY( 10,  5)   DRY( 10,  6)   DRY( 10,  7)   DRY( 10,  8)   DRY( 10,  9)   
    DRY( 10, 10)   DRY( 10, 11)   DRY( 10, 12)   DRY( 10, 13)   DRY( 10, 14)   
    DRY( 10, 15)   DRY( 10, 16)   DRY( 10, 17)   DRY( 11,  1)   DRY( 11,  2)   
    DRY( 11,  3)   DRY( 11,  4)   DRY( 11,  5)   DRY( 11,  6)   DRY( 11,  7)   
    DRY( 11,  8)   DRY( 11,  9)   DRY( 11, 10)   DRY( 11, 11)   DRY( 11, 12)   
    DRY( 11, 13)   DRY( 11, 14)   DRY( 11, 15)   DRY( 11, 16)   DRY( 11, 17)   
    DRY( 12,  1)   DRY( 12,  2)   DRY( 12,  3)   DRY( 12,  4)   DRY( 12,  5)   
    DRY( 12,  6)   DRY( 12,  7)   DRY( 12,  8)   DRY( 12,  9)   DRY( 12, 10)   
    DRY( 12, 11)   DRY( 12, 12)   DRY( 12, 13)   DRY( 12, 14)   DRY( 12, 15)   
    DRY( 12, 16)   DRY( 12, 17)   DRY( 13,  1)   DRY( 13,  2)   DRY( 13,  3)   
    DRY( 13,  4)   DRY( 13,  5)   DRY( 13,  6)   DRY( 13,  7)   DRY( 13,  8)   
    DRY( 13,  9)   DRY( 13, 10)   DRY( 13, 11)   DRY( 13, 12)   DRY( 13, 13)   
    DRY( 13, 14)   DRY( 13, 15)   DRY( 13, 16)   DRY( 13, 17)   DRY( 14,  1)   
    DRY( 14,  2)   DRY( 14,  3)   DRY( 14,  4)   DRY( 14,  5)   DRY( 14,  6)   
    DRY( 14,  7)   DRY( 14,  8)   DRY( 14,  9)   DRY( 14, 10)   DRY( 14, 11)   
    DRY( 14, 12)   DRY( 14, 13)   DRY( 14, 14)   DRY( 14, 15)   DRY( 14, 16)   
    DRY( 14, 17)   DRY( 15,  1)   DRY( 15,  2)   DRY( 15,  3)   DRY( 15,  4)   
    DRY( 15,  5)   DRY( 15,  6)   DRY( 15,  7)   DRY( 15,  8)   DRY( 15,  9)   
    DRY( 15, 10)   DRY( 15, 11)   DRY( 15, 12)   DRY( 15, 13)   DRY( 15, 14)   
    DRY( 15, 15)   DRY( 15, 16)   DRY( 15, 17)   DRY( 16,  1)   DRY( 16,  2)   
    DRY( 16,  3)   DRY( 16,  4)   DRY( 16,  5)   DRY( 16,  6)   DRY( 16,  7)   
    DRY( 16,  8)   DRY( 16,  9)   DRY( 16, 10)   DRY( 16, 11)   DRY( 16, 12)   
    DRY( 16, 13)   DRY( 16, 14)   DRY( 16, 15)   DRY( 16, 16)   DRY( 16, 17)   
    DRY( 17,  1)   DRY( 17,  2)   DRY( 17,  3)   DRY( 17,  4)   DRY( 17,  5)   
    DRY( 17,  6)   DRY( 17,  7)   DRY( 17,  8)   DRY( 17,  9)   DRY( 17, 10)   
    DRY( 17, 11)   DRY( 17, 12)   DRY( 17, 13)   DRY( 17, 14)   DRY( 17, 15)   
    DRY( 17, 16)   DRY( 17, 17)   DRY( 18,  1)   DRY( 18,  2)   DRY( 18,  3)   
    DRY( 18,  4)   DRY( 18,  5)   DRY( 18,  6)   DRY( 18,  7)   DRY( 18,  8)   
    DRY( 18,  9)   DRY( 18, 10)   DRY( 18, 11)   DRY( 18, 12)   DRY( 18, 13)   
    DRY( 18, 14)   DRY( 18, 15)   DRY( 19,  1)   DRY( 19,  2)   DRY( 19,  3)   
    DRY( 19,  4)   DRY( 19,  5)   DRY( 19,  6)   DRY( 19,  7)   DRY( 19,  8)   
    DRY( 19,  9)   DRY( 19, 10)   DRY( 19, 11)   DRY( 19, 12)   DRY( 19, 13)   
    DRY( 19, 14)   DRY( 20,  1)   DRY( 20,  2)   DRY( 20,  3)   DRY( 20,  4)   
    DRY( 20,  5)   DRY( 20,  6)   DRY( 20,  7)   DRY( 20,  8)   DRY( 20,  9)   
    DRY( 20, 10)   DRY( 20, 11)   DRY( 21,  1)   DRY( 21,  2)   DRY( 21,  3)   
    DRY( 21,  4)   DRY( 21,  5)   DRY( 21,  6)   


     4 CALLS TO PCG ROUTINE FOR TIME STEP   1 IN STRESS PERIOD    1
    72 TOTAL ITERATIONS

 MAXIMUM HEAD CHANGE FOR EACH ITERATION (1 INDICATES THE FIRST INNER ITERATION):

    HEAD CHANGE    HEAD CHANGE    HEAD CHANGE    HEAD CHANGE    HEAD CHANGE 
   LAYER,ROW,COL  LAYER,ROW,COL  LAYER,ROW,COL  LAYER,ROW,COL  LAYER,ROW,COL
 ---------------------------------------------------------------------------
  1 -0.4687      0  0.2580      0 -0.2518      0  0.1897      0 -0.2256    
   (  5, 21,  2)  (  5, 17,  1)  (  5, 14,  2)  (  5, 14,  4)  (  5, 18,  1)
  0 -0.2208      0 -0.1658      0  0.1886      0 -0.1353      0  0.1066    
   (  5, 19,  1)  (  5, 17,  4)  (  5, 15,  4)  (  5, 14,  4)  (  5, 14,  6)
  0 -0.7304E-01  0 -0.6570E-01  0  0.3576E-01  0 -0.4504E-01  0 -0.2852E-01
   (  5, 16,  4)  (  5, 19,  1)  (  5, 15,  3)  (  5, 17,  3)  (  5, 20,  1)
  0 -0.1530E-01  0 -0.2432E-01  0  0.1495E-01  0  0.1202E-01  0  0.9938E-02
   (  5, 11,  2)  (  5, 18,  3)  (  5, 17,  4)  (  5, 14,  3)  (  5, 20,  1)
  0 -0.8429E-02  0  0.7254E-02  0  0.8126E-02  0 -0.3408E-02  0 -0.5353E-02
   (  5, 18,  1)  (  5, 18,  3)  (  5,  6,  1)  (  5, 14,  3)  (  5,  6,  1)
  0 -0.2253E-02  0 -0.2010E-02  0 -0.1277E-02  0  0.1922E-02  0 -0.1327E-02
   (  5, 13, 12)  (  5,  7,  1)  (  5, 17,  1)  (  5, 18,  2)  (  5, 18,  1)
  1  0.8628E-03  0 -0.5902E-03  0 -0.6702E-03  0  0.6565E-03  0 -0.9708E-03
   (  5, 19,  1)  (  5, 18,  1)  (  5, 13,  3)  (  5, 17,  1)  (  5, 15,  1)
  0  0.5749E-03  0 -0.6039E-03  0  0.3043E-03  0 -0.2780E-03  0  0.2940E-03
   (  5, 17,  1)  (  5, 18,  1)  (  5,  6,  1)  (  5, 17,  6)  (  5, 15,  5)
  0  0.2871E-03  0 -0.1716E-03  0 -0.1618E-03  0 -0.8501E-04  0  0.1340E-03
   (  5,  6,  1)  (  5, 20,  1)  (  5,  6,  1)  (  5, 13,  1)  (  5, 15,  3)
  0 -0.8823E-04  0  0.5201E-04  0  0.8563E-04  0 -0.4292E-04  0  0.2758E-04
   (  5, 16,  4)  (  5, 15,  1)  (  5, 17,  5)  (  5, 19,  5)  (  5, 17,  3)
  0  0.3498E-04  0 -0.2472E-04  0  0.2250E-04  0 -0.1010E-04  0  0.1749E-04
   (  5, 18,  1)  (  5, 18,  3)  (  5, 19,  3)  (  5, 14,  2)  (  5, 20,  2)
  0  0.9413E-05  0  0.9680E-05  0  0.5146E-05  0 -0.4362E-05  0  0.6033E-05
   (  5, 17,  4)  (  5, 18,  1)  (  5, 14,  1)  (  5, 17,  1)  (  5, 21,  3)
  1 -0.3784E-05  0  0.2163E-05  0 -0.3476E-05  0 -0.2208E-05  0 -0.3823E-05
   (  5, 20,  3)  (  5, 13,  2)  (  5, 14,  1)  (  5, 12,  5)  (  5, 17,  1)
  0  0.2227E-05  0  0.2258E-05  0 -0.1928E-05  0  0.1709E-05  0  0.1256E-05
   (  5, 15,  1)  (  5, 15,  5)  (  5, 15,  6)  (  5, 19,  1)  (  5, 13,  6)
  0 -0.9867E-06  1  0.5748E-06
   (  5, 16,  3)  (  5, 18,  5)

 MAXIMUM RESIDUAL FOR EACH ITERATION (1 INDICATES THE FIRST INNER ITERATION):

    RESIDUAL       RESIDUAL       RESIDUAL       RESIDUAL       RESIDUAL    
   LAYER,ROW,COL  LAYER,ROW,COL  LAYER,ROW,COL  LAYER,ROW,COL  LAYER,ROW,COL
 ---------------------------------------------------------------------------
  1  0.1546E-01  0  0.1471E-01  0  0.1383E-01  0  0.1274E-01  0  0.1130E-01
   (  3, 17, 17)  (  3, 17, 17)  (  3, 17, 17)  (  3, 17, 17)  (  3, 17, 17)
  0  0.9435E-02  0  0.7408E-02  0  0.5255E-02  0  0.3643E-02  0  0.2494E-02
   (  3, 17, 17)  (  3, 17, 17)  (  3, 17, 17)  (  3, 20, 11)  (  3, 20, 11)
  0  0.1841E-02  0  0.1171E-02  0  0.1070E-02  0  0.7183E-03  0  0.5773E-03
   (  3, 20, 11)  (  3, 20, 11)  (  3, 20, 11)  (  3, 20, 11)  (  4, 16, 17)
  0  0.5453E-03  0  0.4795E-03  0  0.4038E-03  0  0.3131E-03  0  0.2599E-03
   (  4, 16, 17)  (  4, 16, 17)  (  4, 16, 17)  (  4, 16, 17)  (  4, 16, 17)
  0  0.2282E-03  0  0.1728E-03  0  0.1344E-03  0  0.1264E-03  0  0.9514E-04
   (  4, 16, 17)  (  4, 16, 17)  (  4, 16, 17)  (  4, 16, 17)  (  4, 16, 17)
  0  0.7268E-04  0  0.5647E-04  0  0.5161E-04  0  0.3959E-04  0  0.3328E-04
   (  4, 16, 17)  (  4, 16, 17)  (  4, 16, 17)  (  4, 16, 17)  (  4, 16, 17)
  1  0.3253E-04  0  0.3091E-04  0  0.2991E-04  0  0.2699E-04  0  0.2360E-04
   (  4, 16, 17)  (  4, 16, 17)  (  4, 16, 17)  (  4, 16, 17)  (  4, 16, 17)
  0  0.1897E-04  0  0.1559E-04  0  0.1147E-04  0  0.9460E-05  0  0.7207E-05
   (  4, 16, 17)  (  4, 16, 17)  (  4, 16, 17)  (  4, 16, 17)  (  4, 16, 17)
  0  0.5770E-05  0  0.4805E-05  0  0.3629E-05  0  0.3404E-05  0  0.2665E-05
   (  4, 16, 17)  (  4, 16, 17)  (  4, 16, 17)  (  4, 16, 17)  (  4, 16, 17)
  0  0.2086E-05  0  0.1947E-05  0  0.1611E-05  0  0.1323E-05  0  0.1050E-05
   (  4, 16, 17)  (  3, 17, 17)  (  3, 17, 17)  (  3, 17, 17)  (  3, 17, 17)
  0  0.9423E-06  0  0.8088E-06  0  0.6451E-06  0  0.6142E-06  0  0.4831E-06
   (  3, 17, 17)  (  3, 17, 17)  (  3, 17, 17)  (  3, 17, 17)  (  3, 17, 17)
  0  0.4067E-06  0  0.3431E-06  0  0.2783E-06  0  0.2510E-06  0  0.1973E-06
   (  3, 17, 17)  (  3, 17, 17)  (  3, 17, 17)  (  3, 17, 17)  (  3, 17, 17)
  1  0.1899E-06  0  0.1865E-06  0  0.1697E-06  0  0.1600E-06  0  0.1432E-06
   (  3, 17, 17)  (  3, 17, 17)  (  3, 17, 17)  (  3, 17, 17)  (  3, 17, 17)
  0  0.1268E-06  0  0.1013E-06  0  0.7975E-07  0  0.6133E-07  0  0.4716E-07
   (  3, 17, 17)  (  3, 17, 17)  (  3, 17, 17)  (  3, 17, 17)  (  3, 17, 17)
  0  0.3382E-07  1  0.3272E-07
   (  3, 17, 17)  (  3, 17, 17)



 OUTPUT CONTROL FOR STRESS PERIOD    1   TIME STEP    1
    SAVE HEAD FOR ALL LAYERS
    SAVE DRAWDOWN FOR ALL LAYERS
    SAVE BUDGET
    PRINT BUDGET
 UBDSV2 SAVING "   CONSTANT HEAD" ON UNIT   9 AT TIME STEP  1, STRESS PERIOD   1
 UBDSV1 SAVING "FLOW RIGHT FACE " ON UNIT   9 AT TIME STEP  1, STRESS PERIOD   1
 UBDSV1 SAVING "FLOW FRONT FACE " ON UNIT   9 AT TIME STEP  1, STRESS PERIOD   1
 UBDSV1 SAVING "FLOW LOWER FACE " ON UNIT   9 AT TIME STEP  1, STRESS PERIOD   1
 UBDSV3 SAVING "        RECHARGE" ON UNIT   9 AT TIME STEP  1, STRESS PERIOD   1

 HEAD WILL BE SAVED ON UNIT   37 AT END OF TIME STEP    1, STRESS PERIOD    1

 DRAWDOWN WILL BE SAVED ON UNIT   38 AT END OF TIME STEP    1, STRESS PERIOD    1
1
  VOLUMETRIC BUDGET FOR ENTIRE MODEL AT END OF TIME STEP    1, STRESS PERIOD   1
  ------------------------------------------------------------------------------

     CUMULATIVE VOLUMES      L**3       RATES FOR THIS TIME STEP      L**3/T
     ------------------                 ------------------------

           IN:                                      IN:
           ---                                      ---
             STORAGE =           0.0000               STORAGE =           0.0000
       CONSTANT HEAD =         162.3666         CONSTANT HEAD =       1.8792E-03
            RECHARGE =           8.4511              RECHARGE =       9.7813E-05

            TOTAL IN =         170.8177              TOTAL IN =       1.9771E-03

          OUT:                                     OUT:
          ----                                     ----
             STORAGE =           0.0000               STORAGE =           0.0000
       CONSTANT HEAD =         170.8223         CONSTANT HEAD =       1.9771E-03
            RECHARGE =           0.0000              RECHARGE =           0.0000

           TOTAL OUT =         170.8223             TOTAL OUT =       1.9771E-03

            IN - OUT =      -4.6082E-03              IN - OUT =      -5.3085E-08

 PERCENT DISCREPANCY =          -0.00     PERCENT DISCREPANCY =          -0.00






         TIME SUMMARY AT END OF TIME STEP    1 IN STRESS PERIOD    1
                    SECONDS     MINUTES      HOURS       DAYS        YEARS
                    -----------------------------------------------------------
   TIME STEP LENGTH  86400.      1440.0      24.000      1.0000     2.73785E-03
 STRESS PERIOD TIME  86400.      1440.0      24.000      1.0000     2.73785E-03
         TOTAL TIME  86400.      1440.0      24.000      1.0000     2.73785E-03
1
1
                            STRESS PERIOD NO.    2, LENGTH =   86400.00    
                            -----------------------------------------------

                              NUMBER OF TIME STEPS =     1

                               MULTIPLIER FOR DELT =     1.000

                            INITIAL TIME STEP SIZE =   86400.00    

 REUSING RECH FROM LAST STRESS PERIOD

 CHD NO.   LAYER   ROW   COL    START HEAD        END HEAD         IFACE           
 ----------------------------------------------------------------------------------
      1      4      1      1       110.7           110.6           0.000    
      2      5      1      1       110.7           110.6           0.000    
      3      4      1      2       110.7           110.6           0.000    
      4      5      1      2       110.7           110.6           0.000    
      5      4      1      3       110.7           110.6           0.000    
      6      5      1      3       110.7           110.6           0.000    
      7      4      1      4       110.7           110.6           0.000    
      8      5      1      4       110.7           110.6           0.000    
      9      4      1      5       110.7           110.6           0.000    
     10      5      1      5       110.7           110.6           0.000    
     11      4      1      6       110.7           110.6           0.000    
     12      5      1      6       110.7           110.6           0.000    
     13      4      1      7       110.7           110.6           0.000    
     14      5      1      7       110.7           110.6           0.000    
     15      4      1      8       110.7           110.6           0.000    
     16      5      1      8       110.7           110.6           0.000    
     17      4      1      9       110.7           110.6           0.000    
     18      5      1      9       110.7           110.6           0.000    
     19      4      1     10       110.7           110.6           0.000    
     20      5      1     10       110.7           110.6           0.000    
     21      4      1     11       110.7           110.6           0.000    
     22      5      1     11       110.7           110.6           0.000    
     23      4      1     12       110.7           110.6           0.000    
     24      5      1     12       110.7           110.6           0.000    
     25      4      1     13       110.7           110.6           0.000    
     26      5      1     13       110.7           110.6           0.000    
     27      4      1     14       110.7           110.6           0.000    
     28      5      1     14       110.7           110.6           0.000    
     29      4      1     15       110.7           110.6           0.000    
     30      5      1     15       110.7           110.6           0.000    
     31      4      1     16       110.7           110.6           0.000    
     32      5      1     16       110.7           110.6           0.000    
     33      4      1     17       110.7           110.6           0.000    
     34      5      1     17       110.7           110.6           0.000    
     35      4     17     17       110.5           110.4           0.000    
     36      5     17     17       110.5           110.4           0.000    
     37      4     18     17       110.5           110.4           0.000    
     38      5     18     17       110.5           110.4           0.000    
     39      4     18     16       110.5           110.4           0.000    
     40      5     18     16       110.5           110.4           0.000    
     41      4     19     16       110.5           110.4           0.000    
     42      5     19     16       110.5           110.4           0.000    
     43      4     19     15       110.5           110.4           0.000    
     44      5     19     15       110.5           110.4           0.000    
     45      4     20     15       110.5           110.4           0.000    
     46      5     20     15       110.5           110.4           0.000    
     47      4     20     14       110.5           110.4           0.000    
     48      5     20     14       110.5           110.4           0.000    
     49      4     20     13       110.5           110.4           0.000    
     50      5     20     13       110.5           110.4           0.000    
     51      4     20     12       110.5           110.4           0.000    
     52      5     20     12       110.5           110.4           0.000    
     53      4     20     11       110.5           110.4           0.000    
     54      5     20     11       110.5           110.4           0.000    
     55      4     21     11       110.5           110.4           0.000    
     56      5     21     11       110.5           110.4           0.000    
     57      4     21     10       110.5           110.4           0.000    
     58      5     21     10       110.5           110.4           0.000    
     59      4     21      9       110.5           110.4           0.000    
     60      5     21      9       110.5           110.4           0.000    
     61      4     21      8       110.5           110.4           0.000    
     62      5     21      8       110.5           110.4           0.000    
     63      4     21      7       110.5           110.4           0.000    
     64      5     21      7       110.5           110.4           0.000    
     65      4     21      6       110.5           110.4           0.000    
     66      5     21      6       110.5           110.4           0.000    
     67      4     21      5       110.5           110.4           0.000    
     68      5     21      5       110.5           110.4           0.000    
     69      4     22      5       110.5           110.4           0.000    
     70      5     22      5       110.5           110.4           0.000    
     71      4     22      4       110.5           110.4           0.000    
     72      5     22      4       110.5           110.4           0.000    
     73      4     22      3       110.5           110.4           0.000    
     74      5     22      3       110.5           110.4           0.000    
     75      4     22      2       110.5           110.4           0.000    
     76      5     22      2       110.5           110.4           0.000    
     77      4     22      1       110.5           110.4           0.000    
     78      5     22      1       110.5           110.4           0.000    


     78 TIME-VARIANT SPECIFIED-HEAD CELLS

 SOLVING FOR HEAD 


     3 CALLS TO PCG ROUTINE FOR TIME STEP   1 IN STRESS PERIOD    2
    46 TOTAL ITERATIONS

 MAXIMUM HEAD CHANGE FOR EACH ITERATION (1 INDICATES THE FIRST INNER ITERATION):

    HEAD CHANGE    HEAD CHANGE    HEAD CHANGE    HEAD CHANGE    HEAD CHANGE 
   LAYER,ROW,COL  LAYER,ROW,COL  LAYER,ROW,COL  LAYER,ROW,COL  LAYER,ROW,COL
 ---------------------------------------------------------------------------
  1 -0.2914      0  0.2327      0 -0.1773      0  0.1287      0 -0.9200E-01
   (  5, 21,  2)  (  5, 20,  1)  (  5, 19,  1)  (  5, 17,  1)  (  5, 16,  1)
  0  0.5638E-01  0 -0.4826E-01  0  0.1759E-01  0 -0.1231E-01  0 -0.8122E-02
   (  5, 19,  1)  (  5, 18,  1)  (  5, 12,  2)  (  5, 11,  2)  (  5, 14,  3)
  0  0.6971E-02  0 -0.4877E-02  0 -0.2737E-02  0  0.1927E-02  0 -0.1174E-02
   (  5, 19,  1)  (  5, 16,  3)  (  5,  7,  1)  (  5,  7,  1)  (  5,  7,  1)
  0  0.7404E-03  0 -0.6903E-03  0  0.5419E-03  0 -0.3085E-03  0 -0.3079E-03
   (  5, 15,  5)  (  5,  6,  1)  (  5,  6,  1)  (  5,  6,  1)  (  5, 15,  1)
  0  0.1338E-03  0  0.1107E-03  0 -0.7624E-04  0  0.4573E-04  0 -0.2648E-04
   (  5, 19,  2)  (  5, 15,  4)  (  5, 14,  4)  (  5, 16,  4)  (  5, 15,  4)
  0  0.1840E-04  0 -0.9323E-05  0 -0.9110E-05  0 -0.6960E-05  0 -0.4143E-05
   (  5, 12,  7)  (  5, 11,  6)  (  5, 12,  1)  (  5, 19,  1)  (  5, 15,  2)
  1 -0.2819E-03  0 -0.2185E-03  0  0.1109E-03  0 -0.5259E-04  0  0.3151E-04
   (  2, 19, 14)  (  5, 17,  1)  (  5, 17,  1)  (  5, 12,  1)  (  5, 12,  1)
  0 -0.2034E-04  0 -0.2341E-04  0 -0.1654E-04  0 -0.1077E-04  0  0.7859E-05
   (  5, 14,  2)  (  5, 19,  1)  (  5, 15,  1)  (  5,  6,  1)  (  5,  6,  1)
  0 -0.4738E-05  0  0.3805E-05  0 -0.2380E-05  0 -0.1526E-05  0  0.9129E-06
   (  5, 20,  1)  (  5, 20,  1)  (  5, 20,  1)  (  5,  6,  1)  (  5, 15,  1)
  1 -0.6969E-06
   (  5,  7,  1)

 MAXIMUM RESIDUAL FOR EACH ITERATION (1 INDICATES THE FIRST INNER ITERATION):

    RESIDUAL       RESIDUAL       RESIDUAL       RESIDUAL       RESIDUAL    
   LAYER,ROW,COL  LAYER,ROW,COL  LAYER,ROW,COL  LAYER,ROW,COL  LAYER,ROW,COL
 ---------------------------------------------------------------------------
  1  0.5142E-02  0  0.4039E-02  0  0.2738E-02  0  0.1701E-02  0  0.1049E-02
   (  3, 17, 17)  (  3, 17, 17)  (  3, 17, 17)  (  3, 17, 17)  (  3, 17, 17)
  0  0.6758E-03  0  0.3937E-03  0  0.2620E-03  0  0.2061E-03  0  0.1532E-03
   (  3, 20, 11)  (  3, 20, 11)  (  4, 16, 17)  (  4, 16, 17)  (  4, 16, 17)
  0  0.1101E-03  0  0.7474E-04  0  0.5031E-04  0  0.3351E-04  0  0.2237E-04
   (  4, 16, 17)  (  4, 16, 17)  (  4, 16, 17)  (  4, 16, 17)  (  4, 16, 17)
  0 -0.1498E-04  0 -0.1056E-04  0 -0.6969E-05  0 -0.4529E-05  0 -0.3297E-05
   (  3, 21,  6)  (  3, 21,  6)  (  3, 21,  6)  (  3, 21,  6)  (  3, 21,  6)
  0 -0.1663E-05  0  0.7793E-06  0  0.5657E-06  0  0.4040E-06  0  0.3024E-06
   (  3, 21,  6)  (  5, 15, 17)  (  5, 15, 17)  (  3, 17, 17)  (  3, 17, 17)
  0  0.2240E-06  0  0.1592E-06  0  0.1258E-06  0  0.8845E-07  0  0.5822E-07
   (  3, 17, 17)  (  3, 17, 17)  (  3, 17, 17)  (  3, 17, 17)  (  3, 17, 17)
  1 -0.7092E-06  0 -0.6085E-06  0 -0.4927E-06  0 -0.3815E-06  0 -0.3059E-06
   (  3, 17, 17)  (  3, 17, 17)  (  3, 17, 17)  (  3, 17, 17)  (  3, 17, 17)
  0 -0.2329E-06  0  0.1708E-06  0  0.1291E-06  0  0.8477E-07  0  0.5256E-07
   (  3, 17, 17)  (  2, 17, 17)  (  2, 17, 17)  (  2, 17, 17)  (  2, 17, 17)
  0  0.3440E-07  0  0.2355E-07  0  0.1752E-07  0  0.1329E-07  0 -0.1033E-07
   (  2, 17, 17)  (  2, 17, 17)  (  2, 17, 17)  (  2, 17, 17)  (  3, 17, 17)
  1  0.9527E-08
   (  2, 17, 17)



 OUTPUT CONTROL FOR STRESS PERIOD    2   TIME STEP    1
    SAVE HEAD FOR ALL LAYERS
    SAVE DRAWDOWN FOR ALL LAYERS
    SAVE BUDGET
    PRINT BUDGET
 UBDSV1 SAVING "         STORAGE" ON UNIT   9 AT TIME STEP  1, STRESS PERIOD   2
 UBDSV2 SAVING "   CONSTANT HEAD" ON UNIT   9 AT TIME STEP  1, STRESS PERIOD   2
 UBDSV1 SAVING "FLOW RIGHT FACE " ON UNIT   9 AT TIME STEP  1, STRESS PERIOD   2
 UBDSV1 SAVING "FLOW FRONT FACE " ON UNIT   9 AT TIME STEP  1, STRESS PERIOD   2
 UBDSV1 SAVING "FLOW LOWER FACE " ON UNIT   9 AT TIME STEP  1, STRESS PERIOD   2
 UBDSV3 SAVING "        RECHARGE" ON UNIT   9 AT TIME STEP  1, STRESS PERIOD   2

 HEAD WILL BE SAVED ON UNIT   37 AT END OF TIME STEP    1, STRESS PERIOD    2

 DRAWDOWN WILL BE SAVED ON UNIT   38 AT END OF TIME STEP    1, STRESS PERIOD    2
1
  VOLUMETRIC BUDGET FOR ENTIRE MODEL AT END OF TIME STEP    1, STRESS PERIOD   2
  ------------------------------------------------------------------------------

     CUMULATIVE VOLUMES      L**3       RATES FOR THIS TIME STEP      L**3/T
     ------------------                 ------------------------

           IN:                                      IN:
           ---                                      ---
             STORAGE =         257.6804               STORAGE =       2.9824E-03
       CONSTANT HEAD =         238.5404         CONSTANT HEAD =       8.8164E-04
            RECHARGE =          16.9021              RECHARGE =       9.7813E-05

            TOTAL IN =         513.1229              TOTAL IN =       3.9619E-03

          OUT:                                     OUT:
          ----                                     ----
             STORAGE =           0.0000               STORAGE =           0.0000
       CONSTANT HEAD =         513.1381         CONSTANT HEAD =       3.9620E-03
            RECHARGE =           0.0000              RECHARGE =           0.0000

           TOTAL OUT =         513.1381             TOTAL OUT =       3.9620E-03

            IN - OUT =      -1.5198E-02              IN - OUT =      -1.2247E-07

 PERCENT DISCREPANCY =          -0.00     PERCENT DISCREPANCY =          -0.00






         TIME SUMMARY AT END OF TIME STEP    1 IN STRESS PERIOD    2
                    SECONDS     MINUTES      HOURS       DAYS        YEARS
                    -----------------------------------------------------------
   TIME STEP LENGTH  86400.      1440.0      24.000      1.0000     2.73785E-03
 STRESS PERIOD TIME  86400.      1440.0      24.000      1.0000     2.73785E-03
         TOTAL TIME 1.72800E+05  2880.0      48.000      2.0000     5.47570E-03
1
1
                            STRESS PERIOD NO.    3, LENGTH =   86400.00    
                            -----------------------------------------------

                              NUMBER OF TIME STEPS =     1

                               MULTIPLIER FOR DELT =     1.000

                            INITIAL TIME STEP SIZE =   86400.00    

 REUSING RECH FROM LAST STRESS PERIOD

 CHD NO.   LAYER   ROW   COL    START HEAD        END HEAD         IFACE           
 ----------------------------------------------------------------------------------
      1      4      1      1       110.6           110.5           0.000    
      2      5      1      1       110.6           110.5           0.000    
      3      4      1      2       110.6           110.5           0.000    
      4      5      1      2       110.6           110.5           0.000    
      5      4      1      3       110.6           110.5           0.000    
      6      5      1      3       110.6           110.5           0.000    
      7      4      1      4       110.6           110.5           0.000    
      8      5      1      4       110.6           110.5           0.000    
      9      4      1      5       110.6           110.5           0.000    
     10      5      1      5       110.6           110.5           0.000    
     11      4      1      6       110.6           110.5           0.000    
     12      5      1      6       110.6           110.5           0.000    
     13      4      1      7       110.6           110.5           0.000    
     14      5      1      7       110.6           110.5           0.000    
     15      4      1      8       110.6           110.5           0.000    
     16      5      1      8       110.6           110.5           0.000    
     17      4      1      9       110.6           110.5           0.000    
     18      5      1      9       110.6           110.5           0.000    
     19      4      1     10       110.6           110.5           0.000    
     20      5      1     10       110.6           110.5           0.000    
     21      4      1     11       110.6           110.5           0.000    
     22      5      1     11       110.6           110.5           0.000    
     23      4      1     12       110.6           110.5           0.000    
     24      5      1     12       110.6           110.5           0.000    
     25      4      1     13       110.6           110.5           0.000    
     26      5      1     13       110.6           110.5           0.000    
     27      4      1     14       110.6           110.5           0.000    
     28      5      1     14       110.6           110.5           0.000    
     29      4      1     15       110.6           110.5           0.000    
     30      5      1     15       110.6           110.5           0.000    
     31      4      1     16       110.6           110.5           0.000    
     32      5      1     16       110.6           110.5           0.000    
     33      4      1     17       110.6           110.5           0.000    
     34      5      1     17       110.6           110.5           0.000    
     35      4     17     17       110.4           110.3           0.000    
     36      5     17     17       110.4           110.3           0.000    
     37      4     18     17       110.4           110.3           0.000    
     38      5     18     17       110.4           110.3           0.000    
     39      4     18     16       110.4           110.3           0.000    
     40      5     18     16       110.4           110.3           0.000    
     41      4     19     16       110.4           110.3           0.000    
     42      5     19     16       110.4           110.3           0.000    
     43      4     19     15       110.4           110.3           0.000    
     44      5     19     15       110.4           110.3           0.000    
     45      4     20     15       110.4           110.3           0.000    
     46      5     20     15       110.4           110.3           0.000    
     47      4     20     14       110.4           110.3           0.000    
     48      5     20     14       110.4           110.3           0.000    
     49      4     20     13       110.4           110.3           0.000    
     50      5     20     13       110.4           110.3           0.000    
     51      4     20     12       110.4           110.3           0.000    
     52      5     20     12       110.4           110.3           0.000    
     53      4     20     11       110.4           110.3           0.000    
     54      5     20     11       110.4           110.3           0.000    
     55      4     21     11       110.4           110.3           0.000    
     56      5     21     11       110.4           110.3           0.000    
     57      4     21     10       110.4           110.3           0.000    
     58      5     21     10       110.4           110.3           0.000    
     59      4     21      9       110.4           110.3           0.000    
     60      5     21      9       110.4           110.3           0.000    
     61      4     21      8       110.4           110.3           0.000    
     62      5     21      8       110.4           110.3           0.000    
     63      4     21      7       110.4           110.3           0.000    
     64      5     21      7       110.4           110.3           0.000    
     65      4     21      6       110.4           110.3           0.000    
     66      5     21      6       110.4           110.3           0.000    
     67      4     21      5       110.4           110.3           0.000    
     68      5     21      5       110.4           110.3           0.000    
     69      4     22      5       110.4           110.3           0.000    
     70      5     22      5       110.4           110.3           0.000    
     71      4     22      4       110.4           110.3           0.000    
     72      5     22      4       110.4           110.3           0.000    
     73      4     22      3       110.4           110.3           0.000    
     74      5     22      3       110.4           110.3           0.000    
     75      4     22      2       110.4           110.3           0.000    
     76      5     22      2       110.4           110.3           0.000    
     77      4     22      1       110.4           110.3           0.000    
     78      5     22      1       110.4           110.3           0.000    


     78 TIME-VARIANT SPECIFIED-HEAD CELLS

 SOLVING FOR HEAD 


     4 CALLS TO PCG ROUTINE FOR TIME STEP   1 IN STRESS PERIOD    3
    51 TOTAL ITERATIONS

 MAXIMUM HEAD CHANGE FOR EACH ITERATION (1 INDICATES THE FIRST INNER ITERATION):

    HEAD CHANGE    HEAD CHANGE    HEAD CHANGE    HEAD CHANGE    HEAD CHANGE 
   LAYER,ROW,COL  LAYER,ROW,COL  LAYER,ROW,COL  LAYER,ROW,COL  LAYER,ROW,COL
 ---------------------------------------------------------------------------
  1 -0.3005      0  0.2385      0 -0.1935      0  0.1399      0 -0.9018E-01
   (  5, 21,  2)  (  5, 20,  1)  (  5, 18,  1)  (  5, 17,  1)  (  5, 15,  1)
  0  0.6277E-01  0 -0.4519E-01  0 -0.1940E-01  0 -0.1226E-01  0 -0.7833E-02
   (  5, 19,  1)  (  5, 18,  1)  (  5, 19,  1)  (  5, 11,  2)  (  5, 14,  4)
  0  0.6939E-02  0 -0.4901E-02  0  0.3068E-02  0  0.1915E-02  0 -0.1202E-02
   (  5, 19,  1)  (  5, 16,  3)  (  5, 15,  3)  (  5,  7,  1)  (  5,  7,  1)
  0  0.7367E-03  0 -0.7002E-03  0  0.5362E-03  0 -0.3349E-03  0  0.2885E-03
   (  5, 15,  5)  (  5,  6,  1)  (  5,  6,  1)  (  5, 14,  1)  (  5, 17,  1)
  0 -0.1713E-03  0  0.1167E-03  0 -0.6613E-04  0  0.5340E-04  0  0.3572E-04
   (  5, 18,  2)  (  5, 15,  4)  (  5, 19,  2)  (  5, 18,  1)  (  5, 14,  2)
  0 -0.2748E-04  0  0.1405E-04  0 -0.9786E-05  0  0.5883E-05  0  0.4088E-05
   (  5, 15,  4)  (  5, 12,  6)  (  5, 11,  6)  (  5, 12,  5)  (  5, 16,  3)
  1 -0.4049E-03  0 -0.3150E-03  0  0.1475E-03  0 -0.7868E-04  0 -0.6710E-04
   (  2, 19, 14)  (  5, 18,  1)  (  5, 17,  1)  (  5, 15,  1)  (  5, 19,  1)
  0  0.3725E-04  0  0.2309E-04  0 -0.2396E-04  0 -0.1533E-04  0  0.1365E-04
   (  5, 19,  1)  (  5,  6,  1)  (  5, 12,  1)  (  5, 16,  1)  (  5,  6,  1)
  0 -0.7023E-05  0 -0.4592E-05  0 -0.3511E-05  0  0.2384E-05  0  0.1155E-05
   (  5,  6,  1)  (  5, 17,  4)  (  5, 20,  1)  (  5, 20,  1)  (  5,  8,  1)
  0  0.8494E-06  1  0.1087E-05  0 -0.1087E-05  0  0.1231E-05  0 -0.9277E-06
   (  5, 14,  2)  (  5,  7,  1)  (  2, 21,  1)  (  5, 18,  2)  (  5, 17,  1)
  1  0.4963E-06
   (  5, 20,  1)

 MAXIMUM RESIDUAL FOR EACH ITERATION (1 INDICATES THE FIRST INNER ITERATION):

    RESIDUAL       RESIDUAL       RESIDUAL       RESIDUAL       RESIDUAL    
   LAYER,ROW,COL  LAYER,ROW,COL  LAYER,ROW,COL  LAYER,ROW,COL  LAYER,ROW,COL
 ---------------------------------------------------------------------------
  1  0.5163E-02  0  0.4099E-02  0  0.2855E-02  0  0.1870E-02  0  0.1206E-02
   (  3, 17, 17)  (  3, 17, 17)  (  3, 17, 17)  (  3, 17, 17)  (  3, 17, 17)
  0  0.7251E-03  0  0.4027E-03  0  0.2563E-03  0  0.2009E-03  0  0.1496E-03
   (  3, 20, 11)  (  3, 20, 11)  (  4, 16, 17)  (  4, 16, 17)  (  4, 16, 17)
  0  0.1090E-03  0  0.7512E-04  0  0.5145E-04  0  0.3455E-04  0  0.2301E-04
   (  4, 16, 17)  (  4, 16, 17)  (  4, 16, 17)  (  4, 16, 17)  (  4, 16, 17)
  0 -0.1555E-04  0 -0.1091E-04  0 -0.7140E-05  0 -0.4729E-05  0 -0.3379E-05
   (  3, 21,  6)  (  3, 21,  6)  (  3, 21,  6)  (  3, 21,  6)  (  3, 21,  6)
  0 -0.1710E-05  0 -0.8095E-06  0  0.6036E-06  0  0.4726E-06  0  0.3671E-06
   (  3, 21,  6)  (  3, 21,  5)  (  5, 15, 17)  (  5, 15, 17)  (  3, 17, 17)
  0  0.2692E-06  0  0.1949E-06  0  0.1336E-06  0  0.8825E-07  0  0.5722E-07
   (  3, 17, 17)  (  3, 17, 17)  (  3, 17, 17)  (  3, 17, 17)  (  3, 17, 17)
  1 -0.8649E-06  0 -0.7695E-06  0 -0.6331E-06  0 -0.4730E-06  0 -0.3716E-06
   (  3, 17, 17)  (  3, 17, 17)  (  3, 17, 17)  (  3, 17, 17)  (  3, 17, 17)
  0 -0.2839E-06  0 -0.2073E-06  0  0.1458E-06  0  0.9867E-07  0  0.6137E-07
   (  3, 17, 17)  (  3, 17, 17)  (  2, 17, 17)  (  2, 17, 17)  (  2, 17, 17)
  0 -0.4194E-07  0 -0.2741E-07  0  0.1854E-07  0 -0.1423E-07  0 -0.1125E-07
   (  4, 18, 14)  (  4, 18, 14)  (  2, 17, 17)  (  3, 17, 17)  (  3, 17, 17)
  0 -0.8486E-08  1  0.9756E-08  0  0.5999E-08  0  0.4093E-08  0  0.2724E-08
   (  3, 17, 17)  (  2, 21,  1)  (  2, 21,  1)  (  2, 21,  1)  (  2, 21,  1)
  1  0.2609E-08
   (  2, 21,  1)



 OUTPUT CONTROL FOR STRESS PERIOD    3   TIME STEP    1
    SAVE HEAD FOR ALL LAYERS
    SAVE DRAWDOWN FOR ALL LAYERS
    SAVE BUDGET
    PRINT BUDGET
 UBDSV1 SAVING "         STORAGE" ON UNIT   9 AT TIME STEP  1, STRESS PERIOD   3
 UBDSV2 SAVING "   CONSTANT HEAD" ON UNIT   9 AT TIME STEP  1, STRESS PERIOD   3
 UBDSV1 SAVING "FLOW RIGHT FACE " ON UNIT   9 AT TIME STEP  1, STRESS PERIOD   3
 UBDSV1 SAVING "FLOW FRONT FACE " ON UNIT   9 AT TIME STEP  1, STRESS PERIOD   3
 UBDSV1 SAVING "FLOW LOWER FACE " ON UNIT   9 AT TIME STEP  1, STRESS PERIOD   3
 UBDSV3 SAVING "        RECHARGE" ON UNIT   9 AT TIME STEP  1, STRESS PERIOD   3

 HEAD WILL BE SAVED ON UNIT   37 AT END OF TIME STEP    1, STRESS PERIOD    3

 DRAWDOWN WILL BE SAVED ON UNIT   38 AT END OF TIME STEP    1, STRESS PERIOD    3
1
  VOLUMETRIC BUDGET FOR ENTIRE MODEL AT END OF TIME STEP    1, STRESS PERIOD   3
  ------------------------------------------------------------------------------

     CUMULATIVE VOLUMES      L**3       RATES FOR THIS TIME STEP      L**3/T
     ------------------                 ------------------------

           IN:                                      IN:
           ---                                      ---
             STORAGE =         577.7435               STORAGE =       3.7044E-03
       CONSTANT HEAD =         323.1957         CONSTANT HEAD =       9.7981E-04
            RECHARGE =          25.3532              RECHARGE =       9.7813E-05

            TOTAL IN =         926.2924              TOTAL IN =       4.7821E-03

          OUT:                                     OUT:
          ----                                     ----
             STORAGE =           0.0000               STORAGE =           0.0000
       CONSTANT HEAD =         926.3181         CONSTANT HEAD =       4.7822E-03
            RECHARGE =           0.0000              RECHARGE =           0.0000

           TOTAL OUT =         926.3181             TOTAL OUT =       4.7822E-03

            IN - OUT =      -2.5696E-02              IN - OUT =      -1.2107E-07

 PERCENT DISCREPANCY =          -0.00     PERCENT DISCREPANCY =          -0.00






         TIME SUMMARY AT END OF TIME STEP    1 IN STRESS PERIOD    3
                    SECONDS     MINUTES      HOURS       DAYS        YEARS
                    -----------------------------------------------------------
   TIME STEP LENGTH  86400.      1440.0      24.000      1.0000     2.73785E-03
 STRESS PERIOD TIME  86400.      1440.0      24.000      1.0000     2.73785E-03
         TOTAL TIME 2.59200E+05  4320.0      72.000      3.0000     8.21355E-03
1
1
                            STRESS PERIOD NO.    4, LENGTH =   86400.00    
                            -----------------------------------------------

                              NUMBER OF TIME STEPS =     1

                               MULTIPLIER FOR DELT =     1.000

                            INITIAL TIME STEP SIZE =   86400.00    

 REUSING RECH FROM LAST STRESS PERIOD

 CHD NO.   LAYER   ROW   COL    START HEAD        END HEAD         IFACE           
 ----------------------------------------------------------------------------------
      1      4      1      1       110.5           110.4           0.000    
      2      5      1      1       110.5           110.4           0.000    
      3      4      1      2       110.5           110.4           0.000    
      4      5      1      2       110.5           110.4           0.000    
      5      4      1      3       110.5           110.4           0.000    
      6      5      1      3       110.5           110.4           0.000    
      7      4      1      4       110.5           110.4           0.000    
      8      5      1      4       110.5           110.4           0.000    
      9      4      1      5       110.5           110.4           0.000    
     10      5      1      5       110.5           110.4           0.000    
     11      4      1      6       110.5           110.4           0.000    
     12      5      1      6       110.5           110.4           0.000    
     13      4      1      7       110.5           110.4           0.000    
     14      5      1      7       110.5           110.4           0.000    
     15      4      1      8       110.5           110.4           0.000    
     16      5      1      8       110.5           110.4           0.000    
     17      4      1      9       110.5           110.4           0.000    
     18      5      1      9       110.5           110.4           0.000    
     19      4      1     10       110.5           110.4           0.000    
     20      5      1     10       110.5           110.4           0.000    
     21      4      1     11       110.5           110.4           0.000    
     22      5      1     11       110.5           110.4           0.000    
     23      4      1     12       110.5           110.4           0.000    
     24      5      1     12       110.5           110.4           0.000    
     25      4      1     13       110.5           110.4           0.000    
     26      5      1     13       110.5           110.4           0.000    
     27      4      1     14       110.5           110.4           0.000    
     28      5      1     14       110.5           110.4           0.000    
     29      4      1     15       110.5           110.4           0.000    
     30      5      1     15       110.5           110.4           0.000    
     31      4      1     16       110.5           110.4           0.000    
     32      5      1     16       110.5           110.4           0.000    
     33      4      1     17       110.5           110.4           0.000    
     34      5      1     17       110.5           110.4           0.000    
     35      4     17     17       110.3           110.2           0.000    
     36      5     17     17       110.3           110.2           0.000    
     37      4     18     17       110.3           110.2           0.000    
     38      5     18     17       110.3           110.2           0.000    
     39      4     18     16       110.3           110.2           0.000    
     40      5     18     16       110.3           110.2           0.000    
     41      4     19     16       110.3           110.2           0.000    
     42      5     19     16       110.3           110.2           0.000    
     43      4     19     15       110.3           110.2           0.000    
     44      5     19     15       110.3           110.2           0.000    
     45      4     20     15       110.3           110.2           0.000    
     46      5     20     15       110.3           110.2           0.000    
     47      4     20     14       110.3           110.2           0.000    
     48      5     20     14       110.3           110.2           0.000    
     49      4     20     13       110.3           110.2           0.000    
     50      5     20     13       110.3           110.2           0.000    
     51      4     20     12       110.3           110.2           0.000    
     52      5     20     12       110.3           110.2           0.000    
     53      4     20     11       110.3           110.2           0.000    
     54      5     20     11       110.3           110.2           0.000    
     55      4     21     11       110.3           110.2           0.000    
     56      5     21     11       110.3           110.2           0.000    
     57      4     21     10       110.3           110.2           0.000    
     58      5     21     10       110.3           110.2           0.000    
     59      4     21      9       110.3           110.2           0.000    
     60      5     21      9       110.3           110.2           0.000    
     61      4     21      8       110.3           110.2           0.000    
     62      5     21      8       110.3           110.2           0.000    
     63      4     21      7       110.3           110.2           0.000    
     64      5     21      7       110.3           110.2           0.000    
     65      4     21      6       110.3           110.2           0.000    
     66      5     21      6       110.3           110.2           0.000    
     67      4     21      5       110.3           110.2           0.000    
     68      5     21      5       110.3           110.2           0.000    
     69      4     22      5       110.3           110.2           0.000    
     70      5     22      5       110.3           110.2           0.000    
     71      4     22      4       110.3           110.2           0.000    
     72      5     22      4       110.3           110.2           0.000    
     73      4     22      3       110.3           110.2           0.000    
     74      5     22      3       110.3           110.2           0.000    
     75      4     22      2       110.3           110.2           0.000    
     76      5     22      2       110.3           110.2           0.000    
     77      4     22      1       110.3           110.2           0.000    
     78      5     22      1       110.3           110.2           0.000    


     78 TIME-VARIANT SPECIFIED-HEAD CELLS

 SOLVING FOR HEAD 


     3 CALLS TO PCG ROUTINE FOR TIME STEP   1 IN STRESS PERIOD    4
    46 TOTAL ITERATIONS

 MAXIMUM HEAD CHANGE FOR EACH ITERATION (1 INDICATES THE FIRST INNER ITERATION):

    HEAD CHANGE    HEAD CHANGE    HEAD CHANGE    HEAD CHANGE    HEAD CHANGE 
   LAYER,ROW,COL  LAYER,ROW,COL  LAYER,ROW,COL  LAYER,ROW,COL  LAYER,ROW,COL
 ---------------------------------------------------------------------------
  1 -0.2027      0  0.1628      0 -0.1329      0  0.8917E-01  0 -0.5928E-01
   (  5, 21,  2)  (  5, 20,  1)  (  5, 18,  1)  (  5, 17,  1)  (  5, 15,  1)
  0  0.3851E-01  0 -0.2734E-01  0 -0.1314E-01  0 -0.8006E-02  0 -0.4796E-02
   (  5, 19,  1)  (  5, 18,  1)  (  5, 19,  1)  (  5, 11,  2)  (  5, 14,  4)
  0  0.4138E-02  0 -0.3175E-02  0  0.2125E-02  0  0.1088E-02  0 -0.7817E-03
   (  5, 19,  1)  (  5, 16,  3)  (  5, 15,  3)  (  5,  7,  1)  (  5,  7,  1)
  0  0.4635E-03  0 -0.4310E-03  0  0.2544E-03  0 -0.2597E-03  0 -0.2152E-03
   (  5, 15,  4)  (  5,  6,  1)  (  5,  6,  1)  (  5, 17,  1)  (  5,  6,  1)
  0  0.9627E-04  0  0.7657E-04  0 -0.4469E-04  0  0.3361E-04  0  0.2392E-04
   (  5,  6,  1)  (  5, 15,  4)  (  5, 14,  4)  (  5, 19,  1)  (  5, 14,  2)
  0 -0.1791E-04  0  0.8982E-05  0 -0.6406E-05  0  0.3852E-05  0 -0.2508E-05
   (  5, 15,  4)  (  5, 12,  6)  (  5, 11,  6)  (  5, 12,  5)  (  5, 12,  5)
  1  0.2717E-03  0 -0.1934E-03  0  0.1166E-03  0 -0.5525E-04  0 -0.3936E-04
   (  5,  6,  1)  (  5, 16,  1)  (  5, 17,  1)  (  5,  5,  2)  (  5,  6,  1)
  0  0.2171E-04  0  0.1814E-04  0 -0.1621E-04  0  0.1292E-04  0 -0.9204E-05
   (  5, 12,  1)  (  5,  6,  1)  (  5, 19,  1)  (  5, 19,  1)  (  5, 20,  1)
  0  0.3838E-05  0  0.3096E-05  0 -0.2302E-05  0  0.1089E-05  0  0.6631E-06
   (  5, 20,  1)  (  5,  7,  1)  (  5,  7,  1)  (  5, 16,  4)  (  5, 14,  1)
  1  0.6777E-06
   (  5, 18,  3)

 MAXIMUM RESIDUAL FOR EACH ITERATION (1 INDICATES THE FIRST INNER ITERATION):

    RESIDUAL       RESIDUAL       RESIDUAL       RESIDUAL       RESIDUAL    
   LAYER,ROW,COL  LAYER,ROW,COL  LAYER,ROW,COL  LAYER,ROW,COL  LAYER,ROW,COL
 ---------------------------------------------------------------------------
  1  0.2949E-02  0  0.2316E-02  0  0.1600E-02  0  0.1054E-02  0  0.6514E-03
   (  3, 17, 17)  (  3, 17, 17)  (  3, 17, 17)  (  3, 17, 17)  (  3, 17, 17)
  0  0.3683E-03  0  0.1933E-03  0 -0.1467E-03  0 -0.1192E-03  0 -0.8426E-04
   (  3, 20, 11)  (  3, 20, 11)  (  4, 21,  2)  (  4, 21,  2)  (  4, 21,  2)
  0  0.5934E-04  0  0.4005E-04  0  0.2686E-04  0 -0.1822E-04  0 -0.1365E-04
   (  4, 16, 17)  (  4, 16, 17)  (  4, 16, 17)  (  3, 21,  6)  (  3, 21,  6)
  0 -0.9741E-05  0 -0.6836E-05  0 -0.4685E-05  0 -0.3480E-05  0 -0.2078E-05
   (  3, 21,  6)  (  3, 21,  6)  (  3, 21,  6)  (  3, 21,  6)  (  3, 21,  6)
  0 -0.9818E-06  0  0.5527E-06  0  0.3990E-06  0  0.2962E-06  0  0.2179E-06
   (  3, 21,  6)  (  5, 15, 17)  (  5, 15, 17)  (  5, 15, 17)  (  5, 15, 17)
  0  0.1306E-06  0  0.7971E-07  0  0.5021E-07  0  0.3882E-07  0  0.2773E-07
   (  5, 15, 17)  (  5, 16, 17)  (  3, 21,  6)  (  3, 21,  6)  (  3, 21,  6)
  1  0.8086E-06  0  0.3624E-06  0 -0.2898E-06  0 -0.2360E-06  0 -0.1930E-06
   (  5,  6,  3)  (  5,  6,  3)  (  3, 17, 17)  (  3, 17, 17)  (  3, 17, 17)
  0 -0.1563E-06  0 -0.1193E-06  0 -0.7826E-07  0  0.4855E-07  0 -0.3294E-07
   (  3, 17, 17)  (  3, 17, 17)  (  3, 17, 17)  (  2, 17, 17)  (  4,  6,  2)
  0  0.2282E-07  0 -0.1655E-07  0 -0.1132E-07  0 -0.6984E-08  0 -0.5595E-08
   (  5,  2, 17)  (  4, 18, 14)  (  4, 18, 14)  (  4, 18, 14)  (  3, 17, 17)
  1  0.5334E-08
   (  2, 17, 17)



 OUTPUT CONTROL FOR STRESS PERIOD    4   TIME STEP    1
    SAVE HEAD FOR ALL LAYERS
    SAVE DRAWDOWN FOR ALL LAYERS
    SAVE BUDGET
    PRINT BUDGET
 UBDSV1 SAVING "         STORAGE" ON UNIT   9 AT TIME STEP  1, STRESS PERIOD   4
 UBDSV2 SAVING "   CONSTANT HEAD" ON UNIT   9 AT TIME STEP  1, STRESS PERIOD   4
 UBDSV1 SAVING "FLOW RIGHT FACE " ON UNIT   9 AT TIME STEP  1, STRESS PERIOD   4
 UBDSV1 SAVING "FLOW FRONT FACE " ON UNIT   9 AT TIME STEP  1, STRESS PERIOD   4
 UBDSV1 SAVING "FLOW LOWER FACE " ON UNIT   9 AT TIME STEP  1, STRESS PERIOD   4
 UBDSV3 SAVING "        RECHARGE" ON UNIT   9 AT TIME STEP  1, STRESS PERIOD   4

 HEAD WILL BE SAVED ON UNIT   37 AT END OF TIME STEP    1, STRESS PERIOD    4

 DRAWDOWN WILL BE SAVED ON UNIT   38 AT END OF TIME STEP    1, STRESS PERIOD    4
1
  VOLUMETRIC BUDGET FOR ENTIRE MODEL AT END OF TIME STEP    1, STRESS PERIOD   4
  ------------------------------------------------------------------------------

     CUMULATIVE VOLUMES      L**3       RATES FOR THIS TIME STEP      L**3/T
     ------------------                 ------------------------

           IN:                                      IN:
           ---                                      ---
             STORAGE =         857.3672               STORAGE =       3.2364E-03
       CONSTANT HEAD =         402.8521         CONSTANT HEAD =       9.2195E-04
            RECHARGE =          33.8043              RECHARGE =       9.7813E-05

            TOTAL IN =        1294.0236              TOTAL IN =       4.2561E-03

          OUT:                                     OUT:
          ----                                     ----
             STORAGE =           0.0000               STORAGE =           0.0000
       CONSTANT HEAD =        1294.0594         CONSTANT HEAD =       4.2563E-03
            RECHARGE =           0.0000              RECHARGE =           0.0000

           TOTAL OUT =        1294.0594             TOTAL OUT =       4.2563E-03

            IN - OUT =      -3.5889E-02              IN - OUT =      -1.1874E-07

 PERCENT DISCREPANCY =          -0.00     PERCENT DISCREPANCY =          -0.00






         TIME SUMMARY AT END OF TIME STEP    1 IN STRESS PERIOD    4
                    SECONDS     MINUTES      HOURS       DAYS        YEARS
                    -----------------------------------------------------------
   TIME STEP LENGTH  86400.      1440.0      24.000      1.0000     2.73785E-03
 STRESS PERIOD TIME  86400.      1440.0      24.000      1.0000     2.73785E-03
         TOTAL TIME 3.45600E+05  5760.0      96.000      4.0000     1.09514E-02
1
1
                            STRESS PERIOD NO.    5, LENGTH =   345600.0    
                            -----------------------------------------------

                              NUMBER OF TIME STEPS =     4

                               MULTIPLIER FOR DELT =     1.000

                            INITIAL TIME STEP SIZE =   86400.00    

 REUSING RECH FROM LAST STRESS PERIOD

 CHD NO.   LAYER   ROW   COL    START HEAD        END HEAD         IFACE           
 ----------------------------------------------------------------------------------
      1      4      1      1       110.4           109.9           0.000    
      2      5      1      1       110.4           109.9           0.000    
      3      4      1      2       110.4           109.9           0.000    
      4      5      1      2       110.4           109.9           0.000    
      5      4      1      3       110.4           109.9           0.000    
      6      5      1      3       110.4           109.9           0.000    
      7      4      1      4       110.4           109.9           0.000    
      8      5      1      4       110.4           109.9           0.000    
      9      4      1      5       110.4           109.9           0.000    
     10      5      1      5       110.4           109.9           0.000    
     11      4      1      6       110.4           109.9           0.000    
     12      5      1      6       110.4           109.9           0.000    
     13      4      1      7       110.4           109.9           0.000    
     14      5      1      7       110.4           109.9           0.000    
     15      4      1      8       110.4           109.9           0.000    
     16      5      1      8       110.4           109.9           0.000    
     17      4      1      9       110.4           109.9           0.000    
     18      5      1      9       110.4           109.9           0.000    
     19      4      1     10       110.4           109.9           0.000    
     20      5      1     10       110.4           109.9           0.000    
     21      4      1     11       110.4           109.9           0.000    
     22      5      1     11       110.4           109.9           0.000    
     23      4      1     12       110.4           109.9           0.000    
     24      5      1     12       110.4           109.9           0.000    
     25      4      1     13       110.4           109.9           0.000    
     26      5      1     13       110.4           109.9           0.000    
     27      4      1     14       110.4           109.9           0.000    
     28      5      1     14       110.4           109.9           0.000    
     29      4      1     15       110.4           109.9           0.000    
     30      5      1     15       110.4           109.9           0.000    
     31      4      1     16       110.4           109.9           0.000    
     32      5      1     16       110.4           109.9           0.000    
     33      4      1     17       110.4           109.9           0.000    
     34      5      1     17       110.4           109.9           0.000    
     35      4     17     17       110.2           109.5           0.000    
     36      5     17     17       110.2           109.5           0.000    
     37      4     18     17       110.2           109.5           0.000    
     38      5     18     17       110.2           109.5           0.000    
     39      4     18     16       110.2           109.5           0.000    
     40      5     18     16       110.2           109.5           0.000    
     41      4     19     16       110.2           109.5           0.000    
     42      5     19     16       110.2           109.5           0.000    
     43      4     19     15       110.2           109.5           0.000    
     44      5     19     15       110.2           109.5           0.000    
     45      4     20     15       110.2           109.5           0.000    
     46      5     20     15       110.2           109.5           0.000    
     47      4     20     14       110.2           109.4           0.000    
     48      5     20     14       110.2           109.4           0.000    
     49      4     20     13       110.2           109.4           0.000    
     50      5     20     13       110.2           109.4           0.000    
     51      4     20     12       110.2           109.4           0.000    
     52      5     20     12       110.2           109.4           0.000    
     53      4     20     11       110.2           109.4           0.000    
     54      5     20     11       110.2           109.4           0.000    
     55      4     21     11       110.2           109.4           0.000    
     56      5     21     11       110.2           109.4           0.000    
     57      4     21     10       110.2           109.4           0.000    
     58      5     21     10       110.2           109.4           0.000    
     59      4     21      9       110.2           109.4           0.000    
     60      5     21      9       110.2           109.4           0.000    
     61      4     21      8       110.2           109.4           0.000    
     62      5     21      8       110.2           109.4           0.000    
     63      4     21      7       110.2           109.4           0.000    
     64      5     21      7       110.2           109.4           0.000    
     65      4     21      6       110.2           109.4           0.000    
     66      5     21      6       110.2           109.4           0.000    
     67      4     21      5       110.2           109.4           0.000    
     68      5     21      5       110.2           109.4           0.000    
     69      4     22      5       110.2           109.4           0.000    
     70      5     22      5       110.2           109.4           0.000    
     71      4     22      4       110.2           109.4           0.000    
     72      5     22      4       110.2           109.4           0.000    
     73      4     22      3       110.2           109.4           0.000    
     74      5     22      3       110.2           109.4           0.000    
     75      4     22      2       110.2           109.4           0.000    
     76      5     22      2       110.2           109.4           0.000    
     77      4     22      1       110.2           109.4           0.000    
     78      5     22      1       110.2           109.4           0.000    


     78 TIME-VARIANT SPECIFIED-HEAD CELLS

 SOLVING FOR HEAD 


     4 CALLS TO PCG ROUTINE FOR TIME STEP   1 IN STRESS PERIOD    5
    56 TOTAL ITERATIONS

 MAXIMUM HEAD CHANGE FOR EACH ITERATION (1 INDICATES THE FIRST INNER ITERATION):

    HEAD CHANGE    HEAD CHANGE    HEAD CHANGE    HEAD CHANGE    HEAD CHANGE 
   LAYER,ROW,COL  LAYER,ROW,COL  LAYER,ROW,COL  LAYER,ROW,COL  LAYER,ROW,COL
 ---------------------------------------------------------------------------
  1 -0.5800      0  0.4622      0 -0.3632      0  0.2665      0 -0.1798    
   (  5, 21,  2)  (  5, 20,  1)  (  5, 18,  1)  (  5, 17,  1)  (  5, 16,  1)
  0  0.1168      0 -0.8944E-01  0 -0.3636E-01  0 -0.2350E-01  0 -0.1514E-01
   (  5, 19,  1)  (  5, 18,  1)  (  5, 19,  1)  (  5, 11,  2)  (  5, 14,  4)
  0  0.1336E-01  0 -0.9423E-02  0  0.5772E-02  0  0.3544E-02  0 -0.2275E-02
   (  5, 19,  1)  (  5, 16,  3)  (  5, 15,  3)  (  5,  7,  1)  (  5,  7,  1)
  0  0.1396E-02  0 -0.1228E-02  0  0.1017E-02  0 -0.7064E-03  0 -0.5817E-03
   (  5, 15,  5)  (  5,  6,  1)  (  5,  6,  1)  (  5,  6,  1)  (  5, 15,  1)
  0  0.3134E-03  0  0.2181E-03  0 -0.1478E-03  0  0.8472E-04  0  0.7331E-04
   (  5, 17,  1)  (  5, 15,  4)  (  5, 14,  4)  (  5, 16,  4)  (  5, 19,  1)
  0 -0.4348E-04  0  0.2738E-04  0 -0.1918E-04  0  0.1040E-04  0  0.8546E-05
   (  5, 20,  1)  (  5, 12,  6)  (  5, 11,  6)  (  5, 12,  5)  (  5, 16,  3)
  1 -0.1294E-02  0 -0.9778E-03  0  0.4313E-03  0 -0.2829E-03  0 -0.2124E-03
   (  2, 19, 14)  (  5, 18,  1)  (  5, 17,  1)  (  5, 15,  1)  (  5, 19,  1)
  0 -0.9648E-04  0  0.6643E-04  0 -0.6939E-04  0 -0.4767E-04  0  0.4181E-04
   (  5, 16,  3)  (  5,  6,  1)  (  5, 12,  1)  (  5,  6,  1)  (  5,  6,  1)
  0 -0.2411E-04  0 -0.1465E-04  0  0.1086E-04  0  0.8257E-05  0  0.3394E-05
   (  5,  6,  1)  (  5, 16,  5)  (  5, 17,  1)  (  5, 20,  1)  (  5, 12,  3)
  0  0.2495E-05  0  0.1695E-05  0 -0.1593E-05  0  0.1154E-05  0 -0.8428E-06
   (  5, 14,  2)  (  5,  7,  1)  (  5, 18,  1)  (  5, 15,  1)  (  5, 16,  1)
  1 -0.8178E-05  0 -0.6502E-05  0  0.3127E-05  0 -0.1421E-05  0 -0.9374E-06
   (  2, 19, 14)  (  5, 17,  1)  (  5, 18,  2)  (  5, 12,  1)  (  5, 19,  1)
  1 -0.6096E-06
   (  5, 14,  1)

 MAXIMUM RESIDUAL FOR EACH ITERATION (1 INDICATES THE FIRST INNER ITERATION):

    RESIDUAL       RESIDUAL       RESIDUAL       RESIDUAL       RESIDUAL    
   LAYER,ROW,COL  LAYER,ROW,COL  LAYER,ROW,COL  LAYER,ROW,COL  LAYER,ROW,COL
 ---------------------------------------------------------------------------
  1  0.1008E-01  0  0.7947E-02  0  0.5457E-02  0  0.3485E-02  0  0.2212E-02
   (  3, 17, 17)  (  3, 17, 17)  (  3, 17, 17)  (  3, 17, 17)  (  3, 17, 17)
  0  0.1365E-02  0  0.7688E-03  0  0.5027E-03  0  0.3928E-03  0  0.2918E-03
   (  3, 20, 11)  (  3, 20, 11)  (  4, 16, 17)  (  4, 16, 17)  (  4, 16, 17)
  0  0.2115E-03  0  0.1448E-03  0  0.9825E-04  0  0.6559E-04  0  0.4364E-04
   (  4, 16, 17)  (  4, 16, 17)  (  4, 16, 17)  (  4, 16, 17)  (  4, 16, 17)
  0 -0.2921E-04  0 -0.2042E-04  0 -0.1323E-04  0 -0.8208E-05  0 -0.5864E-05
   (  3, 21,  6)  (  3, 21,  6)  (  3, 21,  6)  (  3, 21,  6)  (  3, 21,  6)
  0 -0.3118E-05  0  0.1504E-05  0  0.1100E-05  0  0.8119E-06  0  0.6909E-06
   (  3, 21,  6)  (  5, 15, 17)  (  5, 15, 17)  (  3, 17, 17)  (  3, 17, 17)
  0  0.5229E-06  0  0.3773E-06  0  0.2573E-06  0  0.1692E-06  0  0.1097E-06
   (  3, 17, 17)  (  3, 17, 17)  (  3, 17, 17)  (  3, 17, 17)  (  3, 17, 17)
  1 -0.2856E-05  0 -0.2526E-05  0 -0.2019E-05  0 -0.1468E-05  0 -0.1144E-05
   (  3, 17, 17)  (  3, 17, 17)  (  3, 17, 17)  (  3, 17, 17)  (  3, 17, 17)
  0 -0.8468E-06  0 -0.5984E-06  0 -0.3851E-06  0  0.2495E-06  0  0.1699E-06
   (  3, 17, 17)  (  3, 17, 17)  (  3, 17, 17)  (  2, 17, 17)  (  5,  6,  1)
  0 -0.1238E-06  0 -0.7712E-07  0  0.4833E-07  0 -0.4018E-07  0 -0.2636E-07
   (  4, 18, 14)  (  4, 18, 14)  (  4, 21,  1)  (  4, 20,  2)  (  4, 20,  2)
  0 -0.1897E-07  0 -0.1344E-07  0 -0.1050E-07  0 -0.8335E-08  0 -0.5806E-08
   (  4, 20,  2)  (  3, 17, 17)  (  3, 17, 17)  (  3, 17, 17)  (  3, 17, 17)
  1  0.3648E-07  0  0.1240E-07  0 -0.8428E-08  0 -0.6121E-08  0  0.5040E-08
   (  5,  6,  2)  (  2, 21,  1)  (  5,  6,  2)  (  3, 21,  1)  (  2, 21,  1)
  1  0.5156E-08
   (  2, 21,  1)



 OUTPUT CONTROL FOR STRESS PERIOD    5   TIME STEP    1
    SAVE HEAD FOR ALL LAYERS
    SAVE DRAWDOWN FOR ALL LAYERS
    SAVE BUDGET
    PRINT BUDGET
 UBDSV1 SAVING "         STORAGE" ON UNIT   9 AT TIME STEP  1, STRESS PERIOD   5
 UBDSV2 SAVING "   CONSTANT HEAD" ON UNIT   9 AT TIME STEP  1, STRESS PERIOD   5
 UBDSV1 SAVING "FLOW RIGHT FACE " ON UNIT   9 AT TIME STEP  1, STRESS PERIOD   5
 UBDSV1 SAVING "FLOW FRONT FACE " ON UNIT   9 AT TIME STEP  1, STRESS PERIOD   5
 UBDSV1 SAVING "FLOW LOWER FACE " ON UNIT   9 AT TIME STEP  1, STRESS PERIOD   5
 UBDSV3 SAVING "        RECHARGE" ON UNIT   9 AT TIME STEP  1, STRESS PERIOD   5

 HEAD WILL BE SAVED ON UNIT   37 AT END OF TIME STEP    1, STRESS PERIOD    5

 DRAWDOWN WILL BE SAVED ON UNIT   38 AT END OF TIME STEP    1, STRESS PERIOD    5
1
  VOLUMETRIC BUDGET FOR ENTIRE MODEL AT END OF TIME STEP    1, STRESS PERIOD   5
  ------------------------------------------------------------------------------

     CUMULATIVE VOLUMES      L**3       RATES FOR THIS TIME STEP      L**3/T
     ------------------                 ------------------------

           IN:                                      IN:
           ---                                      ---
             STORAGE =        1427.8846               STORAGE =       6.6032E-03
       CONSTANT HEAD =         431.5714         CONSTANT HEAD =       3.3240E-04
            RECHARGE =          42.2554              RECHARGE =       9.7813E-05

            TOTAL IN =        1901.7114              TOTAL IN =       7.0334E-03

          OUT:                                     OUT:
          ----                                     ----
             STORAGE =           0.0000               STORAGE =           0.0000
       CONSTANT HEAD =        1901.7585         CONSTANT HEAD =       7.0336E-03
            RECHARGE =           0.0000              RECHARGE =           0.0000

           TOTAL OUT =        1901.7585             TOTAL OUT =       7.0336E-03

            IN - OUT =      -4.7119E-02              IN - OUT =      -1.2945E-07

 PERCENT DISCREPANCY =          -0.00     PERCENT DISCREPANCY =          -0.00






         TIME SUMMARY AT END OF TIME STEP    1 IN STRESS PERIOD    5
                    SECONDS     MINUTES      HOURS       DAYS        YEARS
                    -----------------------------------------------------------
   TIME STEP LENGTH  86400.      1440.0      24.000      1.0000     2.73785E-03
 STRESS PERIOD TIME  86400.      1440.0      24.000      1.0000     2.73785E-03
         TOTAL TIME 4.32000E+05  7200.0      120.00      5.0000     1.36893E-02
1

 SOLVING FOR HEAD 
     4 CALLS TO PCG ROUTINE FOR TIME STEP   2 IN STRESS PERIOD    5
    58 TOTAL ITERATIONS

 MAXIMUM HEAD CHANGE FOR EACH ITERATION (1 INDICATES THE FIRST INNER ITERATION):

    HEAD CHANGE    HEAD CHANGE    HEAD CHANGE    HEAD CHANGE    HEAD CHANGE 
   LAYER,ROW,COL  LAYER,ROW,COL  LAYER,ROW,COL  LAYER,ROW,COL  LAYER,ROW,COL
 ---------------------------------------------------------------------------
  1 -0.5985      0  0.4766      0 -0.3846      0  0.2772      0 -0.1784    
   (  5, 21,  2)  (  5, 20,  1)  (  5, 18,  1)  (  5, 17,  1)  (  5, 15,  1)
  0  0.1198      0 -0.8801E-01  0 -0.3863E-01  0 -0.2389E-01  0 -0.1510E-01
   (  5, 19,  1)  (  5, 18,  1)  (  5, 19,  1)  (  5, 11,  2)  (  5, 14,  4)
  0  0.1318E-01  0 -0.9552E-02  0  0.6255E-02  0  0.3409E-02  0 -0.2314E-02
   (  5, 19,  1)  (  5, 16,  3)  (  5, 15,  3)  (  5,  7,  1)  (  5,  7,  1)
  0  0.1389E-02  0 -0.1160E-02  0 -0.9375E-03  0  0.8045E-03  0 -0.7067E-03
   (  5, 15,  4)  (  5,  6,  1)  (  5, 17,  1)  (  5, 16,  1)  (  5,  6,  1)
  0  0.3169E-03  0  0.2275E-03  0  0.1400E-03  0 -0.1175E-03  0  0.6534E-04
   (  5,  6,  1)  (  5, 15,  4)  (  5, 18,  1)  (  5, 19,  2)  (  5, 16,  4)
  0 -0.4924E-04  0  0.2666E-04  0 -0.1936E-04  0  0.1054E-04  0  0.8870E-05
   (  5, 15,  4)  (  5, 12,  6)  (  5, 11,  6)  (  5, 11,  4)  (  5, 16,  3)
  1 -0.1629E-02  0 -0.1250E-02  0  0.5959E-03  0 -0.3732E-03  0 -0.2722E-03
   (  2, 19, 14)  (  5, 18,  1)  (  5, 17,  1)  (  5, 15,  1)  (  5, 19,  1)
  0  0.1582E-03  0  0.8240E-04  0 -0.1048E-03  0 -0.7450E-04  0  0.5557E-04
   (  5, 19,  1)  (  5, 12,  2)  (  5, 12,  1)  (  5,  6,  1)  (  5,  6,  1)
  0 -0.3424E-04  0 -0.2119E-04  0 -0.1259E-04  0  0.9492E-05  0  0.4167E-05
   (  5,  6,  1)  (  5, 16,  5)  (  5,  7,  1)  (  5,  7,  1)  (  5, 14,  6)
  0  0.3058E-05  0  0.3067E-05  0  0.2514E-05  0 -0.1602E-05  0  0.1053E-05
   (  5, 18,  3)  (  5, 20,  1)  (  5, 16,  1)  (  5, 16,  1)  (  5, 19,  1)
  0 -0.7950E-06  1 -0.1310E-04  0 -0.8529E-05  0  0.4583E-05  0 -0.2732E-05
   (  5, 19,  2)  (  2, 19, 14)  (  5, 19,  2)  (  5, 17,  1)  (  5, 15,  1)
  0 -0.1417E-05  0 -0.9846E-06  1 -0.5664E-06
   (  5, 19,  1)  (  5, 14,  2)  (  5, 19,  3)

 MAXIMUM RESIDUAL FOR EACH ITERATION (1 INDICATES THE FIRST INNER ITERATION):

    RESIDUAL       RESIDUAL       RESIDUAL       RESIDUAL       RESIDUAL    
   LAYER,ROW,COL  LAYER,ROW,COL  LAYER,ROW,COL  LAYER,ROW,COL  LAYER,ROW,COL
 ---------------------------------------------------------------------------
  1  0.1007E-01  0  0.7968E-02  0  0.5525E-02  0  0.3605E-02  0  0.2300E-02
   (  3, 17, 17)  (  3, 17, 17)  (  3, 17, 17)  (  3, 17, 17)  (  3, 17, 17)
  0  0.1371E-02  0  0.7538E-03  0  0.4956E-03  0  0.3855E-03  0  0.2854E-03
   (  3, 20, 11)  (  3, 20, 11)  (  4, 16, 17)  (  4, 16, 17)  (  4, 16, 17)
  0  0.2075E-03  0  0.1424E-03  0  0.9691E-04  0  0.6455E-04  0  0.4274E-04
   (  4, 16, 17)  (  4, 16, 17)  (  4, 16, 17)  (  4, 16, 17)  (  4, 16, 17)
  0 -0.2980E-04  0 -0.2085E-04  0 -0.1489E-04  0 -0.1076E-04  0 -0.6386E-05
   (  3, 21,  6)  (  3, 21,  6)  (  3, 21,  6)  (  3, 21,  6)  (  3, 21,  6)
  0 -0.3116E-05  0  0.1556E-05  0  0.1217E-05  0  0.9382E-06  0  0.6619E-06
   (  3, 21,  6)  (  5, 15, 17)  (  5, 15, 17)  (  5, 15, 17)  (  5, 15, 17)
  0  0.4720E-06  0  0.3393E-06  0  0.2322E-06  0  0.1545E-06  0  0.1072E-06
   (  3, 17, 17)  (  3, 17, 17)  (  3, 17, 17)  (  3, 17, 17)  (  3, 17, 17)
  1  0.3255E-05  0  0.2977E-05  0 -0.2342E-05  0 -0.1689E-05  0 -0.1284E-05
   (  5, 16, 17)  (  5, 16, 17)  (  3, 17, 17)  (  3, 17, 17)  (  3, 17, 17)
  0 -0.9547E-06  0 -0.6784E-06  0 -0.4238E-06  0 -0.3008E-06  0  0.2349E-06
   (  3, 17, 17)  (  3, 17, 17)  (  3, 17, 17)  (  5,  6,  1)  (  5,  6,  1)
  0 -0.1538E-06  0 -0.9636E-07  0 -0.6034E-07  0 -0.4795E-07  0 -0.3395E-07
   (  4, 18, 14)  (  4, 18, 14)  (  4, 20,  2)  (  4, 20,  2)  (  4, 20,  2)
  0 -0.2343E-07  0 -0.1569E-07  0 -0.1260E-07  0 -0.9454E-08  0 -0.6804E-08
   (  4, 20,  2)  (  4, 21,  3)  (  4, 21,  2)  (  4, 21,  2)  (  4, 21,  2)
  0  0.3337E-08  1 -0.2578E-07  0  0.1512E-07  0  0.1081E-07  0 -0.7966E-08
   (  4, 20,  3)  (  3, 21,  1)  (  2, 21,  1)  (  5, 16, 17)  (  3, 21,  1)
  0 -0.6612E-08  0 -0.5526E-08  1 -0.5638E-08
   (  3, 21,  1)  (  3, 21,  1)  (  3, 21,  1)



 OUTPUT CONTROL FOR STRESS PERIOD    5   TIME STEP    2
    SAVE HEAD FOR ALL LAYERS
    SAVE DRAWDOWN FOR ALL LAYERS
    SAVE BUDGET
    PRINT BUDGET
 UBDSV1 SAVING "         STORAGE" ON UNIT   9 AT TIME STEP  2, STRESS PERIOD   5
 UBDSV2 SAVING "   CONSTANT HEAD" ON UNIT   9 AT TIME STEP  2, STRESS PERIOD   5
 UBDSV1 SAVING "FLOW RIGHT FACE " ON UNIT   9 AT TIME STEP  2, STRESS PERIOD   5
 UBDSV1 SAVING "FLOW FRONT FACE " ON UNIT   9 AT TIME STEP  2, STRESS PERIOD   5
 UBDSV1 SAVING "FLOW LOWER FACE " ON UNIT   9 AT TIME STEP  2, STRESS PERIOD   5
 UBDSV3 SAVING "        RECHARGE" ON UNIT   9 AT TIME STEP  2, STRESS PERIOD   5

 HEAD WILL BE SAVED ON UNIT   37 AT END OF TIME STEP    2, STRESS PERIOD    5

 DRAWDOWN WILL BE SAVED ON UNIT   38 AT END OF TIME STEP    2, STRESS PERIOD    5
1
  VOLUMETRIC BUDGET FOR ENTIRE MODEL AT END OF TIME STEP    2, STRESS PERIOD   5
  ------------------------------------------------------------------------------

     CUMULATIVE VOLUMES      L**3       RATES FOR THIS TIME STEP      L**3/T
     ------------------                 ------------------------

           IN:                                      IN:
           ---                                      ---
             STORAGE =        2091.8096               STORAGE =       7.6843E-03
       CONSTANT HEAD =         472.7557         CONSTANT HEAD =       4.7667E-04
            RECHARGE =          50.7064              RECHARGE =       9.7813E-05

            TOTAL IN =        2615.2717              TOTAL IN =       8.2588E-03

          OUT:                                     OUT:
          ----                                     ----
             STORAGE =           0.0000               STORAGE =           0.0000
       CONSTANT HEAD =        2615.3308         CONSTANT HEAD =       8.2589E-03
            RECHARGE =           0.0000              RECHARGE =           0.0000

           TOTAL OUT =        2615.3308             TOTAL OUT =       8.2589E-03

            IN - OUT =      -5.9082E-02              IN - OUT =      -1.3690E-07

 PERCENT DISCREPANCY =          -0.00     PERCENT DISCREPANCY =          -0.00






         TIME SUMMARY AT END OF TIME STEP    2 IN STRESS PERIOD    5
                    SECONDS     MINUTES      HOURS       DAYS        YEARS
                    -----------------------------------------------------------
   TIME STEP LENGTH  86400.      1440.0      24.000      1.0000     2.73785E-03
 STRESS PERIOD TIME 1.72800E+05  2880.0      48.000      2.0000     5.47570E-03
         TOTAL TIME 5.18400E+05  8640.0      144.00      6.0000     1.64271E-02
1

 SOLVING FOR HEAD 
     4 CALLS TO PCG ROUTINE FOR TIME STEP   3 IN STRESS PERIOD    5
    59 TOTAL ITERATIONS

 MAXIMUM HEAD CHANGE FOR EACH ITERATION (1 INDICATES THE FIRST INNER ITERATION):

    HEAD CHANGE    HEAD CHANGE    HEAD CHANGE    HEAD CHANGE    HEAD CHANGE 
   LAYER,ROW,COL  LAYER,ROW,COL  LAYER,ROW,COL  LAYER,ROW,COL  LAYER,ROW,COL
 ---------------------------------------------------------------------------
  1 -0.6060      0  0.4828      0 -0.3897      0  0.2785      0 -0.1807    
   (  5, 21,  2)  (  5, 20,  1)  (  5, 18,  1)  (  5, 17,  1)  (  5, 15,  1)
  0  0.1180      0 -0.8744E-01  0 -0.3953E-01  0 -0.2381E-01  0 -0.1488E-01
   (  5, 19,  1)  (  5, 18,  1)  (  5, 19,  1)  (  5, 11,  2)  (  5, 14,  4)
  0  0.1297E-01  0 -0.9500E-02  0  0.6452E-02  0  0.3212E-02  0 -0.2273E-02
   (  5, 19,  1)  (  5, 16,  3)  (  5, 15,  3)  (  5,  7,  1)  (  5,  7,  1)
  0  0.1393E-02  0 -0.1075E-02  0  0.9355E-03  0 -0.7523E-03  0  0.5413E-03
   (  5, 17,  2)  (  5,  6,  1)  (  5,  6,  1)  (  5,  6,  1)  (  5, 17,  1)
  0 -0.3771E-03  0  0.2193E-03  0 -0.1331E-03  0 -0.1142E-03  0  0.6465E-04
   (  5, 16,  1)  (  5, 15,  4)  (  5, 14,  2)  (  5, 19,  2)  (  5, 16,  4)
  0 -0.4827E-04  0  0.2604E-04  0 -0.1966E-04  0  0.1007E-04  0 -0.7068E-05
   (  5, 15,  4)  (  5, 12,  6)  (  5, 11,  6)  (  5, 12,  5)  (  5, 15,  2)
  1 -0.1760E-02  0 -0.1362E-02  0  0.7025E-03  0 -0.3091E-03  0  0.2133E-03
   (  2, 19, 14)  (  5, 17,  1)  (  5, 17,  1)  (  5, 11,  6)  (  5, 13,  1)
  0 -0.1559E-03  0 -0.1234E-03  0  0.9493E-04  0 -0.8101E-04  0  0.4877E-04
   (  5, 12,  1)  (  5, 19,  1)  (  5, 19,  1)  (  5, 19,  1)  (  5,  6,  1)
  0 -0.3605E-04  0 -0.2250E-04  0 -0.1423E-04  0  0.1043E-04  0  0.5095E-05
   (  5,  6,  1)  (  5, 16,  5)  (  5,  7,  1)  (  5,  7,  1)  (  5, 12,  4)
  0  0.3345E-05  0 -0.1862E-05  0  0.2300E-05  0 -0.1542E-05  0  0.1179E-05
   (  5, 17,  4)  (  5, 18,  3)  (  5, 19,  3)  (  5, 17,  1)  (  5, 18,  1)
  0 -0.8550E-06  1 -0.1503E-04  0 -0.9636E-05  0  0.6121E-05  0 -0.2862E-05
   (  5, 20,  1)  (  2, 19, 14)  (  5, 19,  1)  (  5, 17,  1)  (  5, 16,  1)
  0 -0.1431E-05  0 -0.1056E-05  0 -0.6887E-06  1 -0.4073E-06
   (  5, 18,  1)  (  5, 14,  2)  (  5, 18,  3)  (  5, 14,  1)

 MAXIMUM RESIDUAL FOR EACH ITERATION (1 INDICATES THE FIRST INNER ITERATION):

    RESIDUAL       RESIDUAL       RESIDUAL       RESIDUAL       RESIDUAL    
   LAYER,ROW,COL  LAYER,ROW,COL  LAYER,ROW,COL  LAYER,ROW,COL  LAYER,ROW,COL
 ---------------------------------------------------------------------------
  1  0.1004E-01  0  0.7949E-02  0  0.5523E-02  0  0.3620E-02  0  0.2297E-02
   (  3, 17, 17)  (  3, 17, 17)  (  3, 17, 17)  (  3, 17, 17)  (  3, 17, 17)
  0  0.1354E-02  0  0.7392E-03  0  0.4901E-03  0  0.3795E-03  0  0.2803E-03
   (  3, 20, 11)  (  3, 20, 11)  (  4, 16, 17)  (  4, 16, 17)  (  4, 16, 17)
  0  0.2040E-03  0  0.1401E-03  0  0.9522E-04  0  0.6323E-04  0 -0.4172E-04
   (  4, 16, 17)  (  4, 16, 17)  (  4, 16, 17)  (  4, 16, 17)  (  3, 21,  6)
  0 -0.2952E-04  0 -0.2045E-04  0 -0.1296E-04  0 -0.7909E-05  0 -0.5429E-05
   (  3, 21,  6)  (  3, 21,  6)  (  3, 21,  6)  (  3, 21,  6)  (  3, 21,  6)
  0 -0.2988E-05  0  0.1546E-05  0  0.1219E-05  0  0.9282E-06  0  0.6511E-06
   (  3, 21,  6)  (  5, 15, 17)  (  5, 15, 17)  (  5, 15, 17)  (  5, 15, 17)
  0  0.4420E-06  0  0.3165E-06  0  0.2163E-06  0  0.1424E-06  0  0.9337E-07
   (  3, 17, 17)  (  3, 17, 17)  (  3, 17, 17)  (  3, 17, 17)  (  3, 17, 17)
  1  0.3527E-05  0  0.3135E-05  0 -0.2367E-05  0 -0.1671E-05  0 -0.1243E-05
   (  5, 16, 17)  (  5, 16, 17)  (  3, 17, 17)  (  3, 17, 17)  (  3, 17, 17)
  0 -0.9392E-06  0 -0.6452E-06  0 -0.4823E-06  0 -0.3048E-06  0  0.2501E-06
   (  3, 17, 17)  (  3, 21,  1)  (  3, 21,  1)  (  3, 21,  1)  (  5,  6,  1)
  0 -0.1627E-06  0 -0.1029E-06  0  0.6716E-07  0 -0.4987E-07  0 -0.3424E-07
   (  4, 18, 14)  (  4, 18, 14)  (  4, 21,  1)  (  4, 20,  2)  (  4, 20,  2)
  0 -0.2477E-07  0 -0.1432E-07  0 -0.1115E-07  0 -0.7465E-08  0 -0.5211E-08
   (  4, 20,  2)  (  4, 21,  3)  (  4, 21,  2)  (  4, 21,  2)  (  4, 21,  2)
  0  0.3565E-08  1 -0.3110E-07  0 -0.1802E-07  0  0.1261E-07  0 -0.9187E-08
   (  4, 20,  2)  (  3, 21,  1)  (  3, 21,  1)  (  5, 16, 17)  (  3, 21,  1)
  0 -0.7502E-08  0 -0.6449E-08  0 -0.5126E-08  1 -0.5466E-08
   (  3, 21,  1)  (  3, 21,  1)  (  3, 21,  1)  (  3, 21,  1)



 OUTPUT CONTROL FOR STRESS PERIOD    5   TIME STEP    3
    SAVE HEAD FOR ALL LAYERS
    SAVE DRAWDOWN FOR ALL LAYERS
    SAVE BUDGET
    PRINT BUDGET
 UBDSV1 SAVING "         STORAGE" ON UNIT   9 AT TIME STEP  3, STRESS PERIOD   5
 UBDSV2 SAVING "   CONSTANT HEAD" ON UNIT   9 AT TIME STEP  3, STRESS PERIOD   5
 UBDSV1 SAVING "FLOW RIGHT FACE " ON UNIT   9 AT TIME STEP  3, STRESS PERIOD   5
 UBDSV1 SAVING "FLOW FRONT FACE " ON UNIT   9 AT TIME STEP  3, STRESS PERIOD   5
 UBDSV1 SAVING "FLOW LOWER FACE " ON UNIT   9 AT TIME STEP  3, STRESS PERIOD   5
 UBDSV3 SAVING "        RECHARGE" ON UNIT   9 AT TIME STEP  3, STRESS PERIOD   5

 HEAD WILL BE SAVED ON UNIT   37 AT END OF TIME STEP    3, STRESS PERIOD    5

 DRAWDOWN WILL BE SAVED ON UNIT   38 AT END OF TIME STEP    3, STRESS PERIOD    5
1
  VOLUMETRIC BUDGET FOR ENTIRE MODEL AT END OF TIME STEP    3, STRESS PERIOD   5
  ------------------------------------------------------------------------------

     CUMULATIVE VOLUMES      L**3       RATES FOR THIS TIME STEP      L**3/T
     ------------------                 ------------------------

           IN:                                      IN:
           ---                                      ---
             STORAGE =        2789.3164               STORAGE =       8.0730E-03
       CONSTANT HEAD =         548.9398         CONSTANT HEAD =       8.8176E-04
            RECHARGE =          59.1575              RECHARGE =       9.7813E-05

            TOTAL IN =        3397.4138              TOTAL IN =       9.0526E-03

          OUT:                                     OUT:
          ----                                     ----
             STORAGE =           0.0000               STORAGE =           0.0000
       CONSTANT HEAD =        3397.4814         CONSTANT HEAD =       9.0527E-03
            RECHARGE =           0.0000              RECHARGE =           0.0000

           TOTAL OUT =        3397.4814             TOTAL OUT =       9.0527E-03

            IN - OUT =      -6.7627E-02              IN - OUT =      -9.9652E-08

 PERCENT DISCREPANCY =          -0.00     PERCENT DISCREPANCY =          -0.00






         TIME SUMMARY AT END OF TIME STEP    3 IN STRESS PERIOD    5
                    SECONDS     MINUTES      HOURS       DAYS        YEARS
                    -----------------------------------------------------------
   TIME STEP LENGTH  86400.      1440.0      24.000      1.0000     2.73785E-03
 STRESS PERIOD TIME 2.59200E+05  4320.0      72.000      3.0000     8.21355E-03
         TOTAL TIME 6.04800E+05  10080.      168.00      7.0000     1.91650E-02
1

 SOLVING FOR HEAD 
     4 CALLS TO PCG ROUTINE FOR TIME STEP   4 IN STRESS PERIOD    5
    59 TOTAL ITERATIONS

 MAXIMUM HEAD CHANGE FOR EACH ITERATION (1 INDICATES THE FIRST INNER ITERATION):

    HEAD CHANGE    HEAD CHANGE    HEAD CHANGE    HEAD CHANGE    HEAD CHANGE 
   LAYER,ROW,COL  LAYER,ROW,COL  LAYER,ROW,COL  LAYER,ROW,COL  LAYER,ROW,COL
 ---------------------------------------------------------------------------
  1 -0.6092      0  0.4856      0 -0.3908      0  0.2788      0 -0.1811    
   (  5, 21,  2)  (  5, 20,  1)  (  5, 18,  1)  (  5, 17,  1)  (  5, 15,  1)
  0  0.1161      0 -0.8698E-01  0 -0.3977E-01  0 -0.2364E-01  0 -0.1469E-01
   (  5, 19,  1)  (  5, 18,  1)  (  5, 19,  1)  (  5, 11,  2)  (  5, 14,  4)
  0  0.1276E-01  0 -0.9424E-02  0  0.6542E-02  0  0.3005E-02  0 -0.2199E-02
   (  5, 19,  1)  (  5, 16,  3)  (  5, 15,  3)  (  5,  7,  1)  (  5,  7,  1)
  0  0.1391E-02  0 -0.1049E-02  0  0.8289E-03  0 -0.7059E-03  0  0.5188E-03
   (  5, 17,  2)  (  5, 16,  2)  (  5,  6,  1)  (  5, 15,  1)  (  5, 17,  1)
  0  0.3307E-03  0  0.2069E-03  0 -0.1431E-03  0  0.8958E-04  0  0.6662E-04
   (  5,  6,  1)  (  5, 15,  4)  (  5, 14,  4)  (  5, 16,  4)  (  5, 19,  1)
  0 -0.5026E-04  0  0.2465E-04  0 -0.1944E-04  0  0.9989E-05  0 -0.7400E-05
   (  5, 18,  1)  (  5, 12,  6)  (  5, 11,  6)  (  5, 11,  4)  (  5, 12,  5)
  1 -0.1836E-02  0 -0.1381E-02  0  0.8200E-03  0 -0.3211E-03  0 -0.2251E-03
   (  2, 19, 14)  (  5, 17,  1)  (  5, 17,  1)  (  5, 10,  5)  (  5,  6,  1)
  0 -0.1609E-03  0  0.1244E-03  0 -0.8419E-04  0 -0.6576E-04  0 -0.4980E-04
   (  5, 13,  1)  (  5,  6,  1)  (  5,  6,  1)  (  5, 11,  2)  (  5, 16,  2)
  0 -0.3130E-04  0 -0.2156E-04  0 -0.1793E-04  0  0.1159E-04  0  0.5070E-05
   (  5,  6,  1)  (  5, 17,  4)  (  5, 20,  1)  (  5, 20,  1)  (  5,  8,  1)
  0  0.3714E-05  0  0.2816E-05  0  0.1925E-05  0 -0.1883E-05  0  0.1008E-05
   (  5, 14,  2)  (  5,  7,  1)  (  5, 16,  1)  (  5, 16,  1)  (  5, 18,  2)
  0 -0.8477E-06  1 -0.1648E-04  0 -0.9944E-05  0  0.5371E-05  0 -0.3077E-05
   (  5, 19,  2)  (  2, 19, 14)  (  5, 18,  2)  (  5, 18,  1)  (  5, 15,  1)
  0  0.1721E-05  0  0.1039E-05  0 -0.7846E-06  1 -0.5375E-06
   (  5, 13,  1)  (  5, 20,  2)  (  5, 19,  2)  (  5, 16,  1)

 MAXIMUM RESIDUAL FOR EACH ITERATION (1 INDICATES THE FIRST INNER ITERATION):

    RESIDUAL       RESIDUAL       RESIDUAL       RESIDUAL       RESIDUAL    
   LAYER,ROW,COL  LAYER,ROW,COL  LAYER,ROW,COL  LAYER,ROW,COL  LAYER,ROW,COL
 ---------------------------------------------------------------------------
  1  0.1003E-01  0  0.7927E-02  0  0.5504E-02  0  0.3606E-02  0  0.2278E-02
   (  3, 17, 17)  (  3, 17, 17)  (  3, 17, 17)  (  3, 17, 17)  (  3, 17, 17)
  0  0.1338E-02  0  0.7275E-03  0  0.4867E-03  0  0.3754E-03  0  0.2767E-03
   (  3, 20, 11)  (  3, 20, 11)  (  4, 16, 17)  (  4, 16, 17)  (  4, 16, 17)
  0  0.2013E-03  0  0.1381E-03  0  0.9370E-04  0  0.6201E-04  0 -0.4129E-04
   (  4, 16, 17)  (  4, 16, 17)  (  4, 16, 17)  (  4, 16, 17)  (  3, 21,  6)
  0 -0.2911E-04  0 -0.2006E-04  0 -0.1282E-04  0 -0.9053E-05  0 -0.5821E-05
   (  3, 21,  6)  (  3, 21,  6)  (  3, 21,  6)  (  3, 21,  6)  (  3, 21,  6)
  0 -0.2877E-05  0  0.1508E-05  0  0.1089E-05  0  0.7472E-06  0  0.5581E-06
   (  3, 21,  6)  (  5, 15, 17)  (  5, 15, 17)  (  5, 15, 17)  (  5, 15, 17)
  0  0.4209E-06  0  0.3015E-06  0  0.2057E-06  0  0.1347E-06  0  0.8549E-07
   (  3, 17, 17)  (  3, 17, 17)  (  3, 17, 17)  (  3, 17, 17)  (  3, 17, 17)
  1  0.4530E-05  0  0.3127E-05  0  0.2368E-05  0 -0.1612E-05  0 -0.1192E-05
   (  5,  6,  3)  (  5, 16, 17)  (  5, 16, 17)  (  3, 17, 17)  (  3, 17, 17)
  0 -0.1024E-05  0 -0.8035E-06  0 -0.5670E-06  0 -0.3549E-06  0  0.2280E-06
   (  3, 21,  1)  (  3, 21,  1)  (  3, 21,  1)  (  3, 21,  1)  (  5,  6,  1)
  0 -0.1661E-06  0 -0.1076E-06  0  0.7365E-07  0 -0.5118E-07  0 -0.3416E-07
   (  4, 18, 14)  (  4, 18, 14)  (  4, 21,  1)  (  4, 20,  2)  (  4, 20,  2)
  0 -0.2633E-07  0 -0.1639E-07  0 -0.1198E-07  0 -0.9754E-08  0 -0.7443E-08
   (  4, 20,  2)  (  4, 21,  3)  (  4, 21,  2)  (  4, 21,  2)  (  4, 21,  2)
  0  0.3768E-08  1 -0.3777E-07  0 -0.2227E-07  0 -0.1550E-07  0 -0.1093E-07
   (  4, 20,  3)  (  3, 21,  1)  (  3, 21,  1)  (  3, 21,  1)  (  3, 21,  1)
  0 -0.9063E-08  0 -0.7604E-08  0 -0.5821E-08  1 -0.6641E-08
   (  3, 21,  1)  (  3, 21,  1)  (  3, 21,  1)  (  3, 21,  1)



 OUTPUT CONTROL FOR STRESS PERIOD    5   TIME STEP    4
    SAVE HEAD FOR ALL LAYERS
    SAVE DRAWDOWN FOR ALL LAYERS
    SAVE BUDGET
    PRINT BUDGET
 UBDSV1 SAVING "         STORAGE" ON UNIT   9 AT TIME STEP  4, STRESS PERIOD   5
 UBDSV2 SAVING "   CONSTANT HEAD" ON UNIT   9 AT TIME STEP  4, STRESS PERIOD   5
 UBDSV1 SAVING "FLOW RIGHT FACE " ON UNIT   9 AT TIME STEP  4, STRESS PERIOD   5
 UBDSV1 SAVING "FLOW FRONT FACE " ON UNIT   9 AT TIME STEP  4, STRESS PERIOD   5
 UBDSV1 SAVING "FLOW LOWER FACE " ON UNIT   9 AT TIME STEP  4, STRESS PERIOD   5
 UBDSV3 SAVING "        RECHARGE" ON UNIT   9 AT TIME STEP  4, STRESS PERIOD   5

 HEAD WILL BE SAVED ON UNIT   37 AT END OF TIME STEP    4, STRESS PERIOD    5

 DRAWDOWN WILL BE SAVED ON UNIT   38 AT END OF TIME STEP    4, STRESS PERIOD    5
1
  VOLUMETRIC BUDGET FOR ENTIRE MODEL AT END OF TIME STEP    4, STRESS PERIOD   5
  ------------------------------------------------------------------------------

     CUMULATIVE VOLUMES      L**3       RATES FOR THIS TIME STEP      L**3/T
     ------------------                 ------------------------

           IN:                                      IN:
           ---                                      ---
             STORAGE =        3499.2705               STORAGE =       8.2171E-03
       CONSTANT HEAD =         668.3564         CONSTANT HEAD =       1.3821E-03
            RECHARGE =          67.6086              RECHARGE =       9.7813E-05

            TOTAL IN =        4235.2354              TOTAL IN =       9.6970E-03

          OUT:                                     OUT:
          ----                                     ----
             STORAGE =           0.0000               STORAGE =           0.0000
       CONSTANT HEAD =        4235.3140         CONSTANT HEAD =       9.6971E-03
            RECHARGE =           0.0000              RECHARGE =           0.0000

           TOTAL OUT =        4235.3140             TOTAL OUT =       9.6971E-03

            IN - OUT =      -7.8613E-02              IN - OUT =      -1.2573E-07

 PERCENT DISCREPANCY =          -0.00     PERCENT DISCREPANCY =          -0.00






         TIME SUMMARY AT END OF TIME STEP    4 IN STRESS PERIOD    5
                    SECONDS     MINUTES      HOURS       DAYS        YEARS
                    -----------------------------------------------------------
   TIME STEP LENGTH  86400.      1440.0      24.000      1.0000     2.73785E-03
 STRESS PERIOD TIME 3.45600E+05  5760.0      96.000      4.0000     1.09514E-02
         TOTAL TIME 6.91200E+05  11520.      192.00      8.0000     2.19028E-02
1
1
                            STRESS PERIOD NO.    6, LENGTH =   86400.00    
                            -----------------------------------------------

                              NUMBER OF TIME STEPS =     1

                               MULTIPLIER FOR DELT =     1.000

                            INITIAL TIME STEP SIZE =   86400.00    

 REUSING RECH FROM LAST STRESS PERIOD

 CHD NO.   LAYER   ROW   COL    START HEAD        END HEAD         IFACE           
 ----------------------------------------------------------------------------------
      1      4      1      1       109.9           109.8           0.000    
      2      5      1      1       109.9           109.8           0.000    
      3      4      1      2       109.9           109.8           0.000    
      4      5      1      2       109.9           109.8           0.000    
      5      4      1      3       109.9           109.8           0.000    
      6      5      1      3       109.9           109.8           0.000    
      7      4      1      4       109.9           109.8           0.000    
      8      5      1      4       109.9           109.8           0.000    
      9      4      1      5       109.9           109.8           0.000    
     10      5      1      5       109.9           109.8           0.000    
     11      4      1      6       109.9           109.8           0.000    
     12      5      1      6       109.9           109.8           0.000    
     13      4      1      7       109.9           109.8           0.000    
     14      5      1      7       109.9           109.8           0.000    
     15      4      1      8       109.9           109.8           0.000    
     16      5      1      8       109.9           109.8           0.000    
     17      4      1      9       109.9           109.8           0.000    
     18      5      1      9       109.9           109.8           0.000    
     19      4      1     10       109.9           109.8           0.000    
     20      5      1     10       109.9           109.8           0.000    
     21      4      1     11       109.9           109.8           0.000    
     22      5      1     11       109.9           109.8           0.000    
     23      4      1     12       109.9           109.8           0.000    
     24      5      1     12       109.9           109.8           0.000    
     25      4      1     13       109.9           109.8           0.000    
     26      5      1     13       109.9           109.8           0.000    
     27      4      1     14       109.9           109.8           0.000    
     28      5      1     14       109.9           109.8           0.000    
     29      4      1     15       109.9           109.8           0.000    
     30      5      1     15       109.9           109.8           0.000    
     31      4      1     16       109.9           109.8           0.000    
     32      5      1     16       109.9           109.8           0.000    
     33      4      1     17       109.9           109.8           0.000    
     34      5      1     17       109.9           109.8           0.000    
     35      4     17     17       109.5           109.4           0.000    
     36      5     17     17       109.5           109.4           0.000    
     37      4     18     17       109.5           109.4           0.000    
     38      5     18     17       109.5           109.4           0.000    
     39      4     18     16       109.5           109.4           0.000    
     40      5     18     16       109.5           109.4           0.000    
     41      4     19     16       109.5           109.4           0.000    
     42      5     19     16       109.5           109.4           0.000    
     43      4     19     15       109.5           109.4           0.000    
     44      5     19     15       109.5           109.4           0.000    
     45      4     20     15       109.5           109.4           0.000    
     46      5     20     15       109.5           109.4           0.000    
     47      4     20     14       109.4           109.4           0.000    
     48      5     20     14       109.4           109.4           0.000    
     49      4     20     13       109.4           109.4           0.000    
     50      5     20     13       109.4           109.4           0.000    
     51      4     20     12       109.4           109.4           0.000    
     52      5     20     12       109.4           109.4           0.000    
     53      4     20     11       109.4           109.4           0.000    
     54      5     20     11       109.4           109.4           0.000    
     55      4     21     11       109.4           109.4           0.000    
     56      5     21     11       109.4           109.4           0.000    
     57      4     21     10       109.4           109.4           0.000    
     58      5     21     10       109.4           109.4           0.000    
     59      4     21      9       109.4           109.4           0.000    
     60      5     21      9       109.4           109.4           0.000    
     61      4     21      8       109.4           109.4           0.000    
     62      5     21      8       109.4           109.4           0.000    
     63      4     21      7       109.4           109.4           0.000    
     64      5     21      7       109.4           109.4           0.000    
     65      4     21      6       109.4           109.4           0.000    
     66      5     21      6       109.4           109.4           0.000    
     67      4     21      5       109.4           109.4           0.000    
     68      5     21      5       109.4           109.4           0.000    
     69      4     22      5       109.4           109.4           0.000    
     70      5     22      5       109.4           109.4           0.000    
     71      4     22      4       109.4           109.4           0.000    
     72      5     22      4       109.4           109.4           0.000    
     73      4     22      3       109.4           109.4           0.000    
     74      5     22      3       109.4           109.4           0.000    
     75      4     22      2       109.4           109.4           0.000    
     76      5     22      2       109.4           109.4           0.000    
     77      4     22      1       109.4           109.4           0.000    
     78      5     22      1       109.4           109.4           0.000    


     78 TIME-VARIANT SPECIFIED-HEAD CELLS

 SOLVING FOR HEAD 


     4 CALLS TO PCG ROUTINE FOR TIME STEP   1 IN STRESS PERIOD    6
    53 TOTAL ITERATIONS

 MAXIMUM HEAD CHANGE FOR EACH ITERATION (1 INDICATES THE FIRST INNER ITERATION):

    HEAD CHANGE    HEAD CHANGE    HEAD CHANGE    HEAD CHANGE    HEAD CHANGE 
   LAYER,ROW,COL  LAYER,ROW,COL  LAYER,ROW,COL  LAYER,ROW,COL  LAYER,ROW,COL
 ---------------------------------------------------------------------------
  1 -0.2593      0  0.2042      0 -0.1639      0  0.1026      0 -0.7453E-01
   (  5, 21,  2)  (  5, 20,  1)  (  5, 18,  1)  (  5, 16,  1)  (  5, 15,  1)
  0  0.4245E-01  0 -0.3375E-01  0 -0.1784E-01  0 -0.9782E-02  0  0.7016E-02
   (  5, 19,  1)  (  5, 18,  1)  (  5, 19,  1)  (  5, 11,  2)  (  5, 16,  3)
  0  0.4564E-02  0 -0.3421E-02  0  0.2942E-02  0 -0.1530E-02  0 -0.8586E-03
   (  5, 19,  1)  (  5, 16,  3)  (  5, 15,  3)  (  5, 15,  4)  (  5,  7,  1)
  0 -0.5013E-03  0 -0.4270E-03  0 -0.2935E-03  0  0.2781E-03  0 -0.2383E-03
   (  5,  8,  3)  (  5, 14,  4)  (  5, 14,  1)  (  5, 16,  1)  (  5, 15,  1)
  0  0.1267E-03  0 -0.8550E-04  0 -0.5134E-04  0 -0.4537E-04  0  0.2516E-04
   (  5,  6,  1)  (  5,  6,  1)  (  5, 14,  3)  (  5, 19,  2)  (  5, 19,  1)
  0 -0.1943E-04  0  0.8763E-05  0 -0.7312E-05  0  0.4370E-05  0 -0.3039E-05
   (  5, 15,  4)  (  5, 12,  6)  (  5, 11,  6)  (  5, 11,  4)  (  5, 12,  5)
  1  0.8286E-03  0 -0.5334E-03  0  0.3508E-03  0 -0.1483E-03  0  0.9495E-04
   (  5,  6,  1)  (  5,  6,  1)  (  5, 16,  1)  (  5,  5,  3)  (  5, 19,  1)
  0 -0.7910E-04  0  0.4085E-04  0  0.2513E-04  0 -0.3123E-04  0  0.1880E-04
   (  5, 19,  1)  (  5, 18,  1)  (  5, 11,  1)  (  5, 12,  2)  (  5,  6,  1)
  0  0.1220E-04  0  0.8962E-05  0 -0.6475E-05  0  0.2950E-05  0  0.1719E-05
   (  5, 16,  1)  (  5, 20,  1)  (  5, 20,  1)  (  5, 16,  4)  (  5,  7,  1)
  0 -0.1435E-05  0  0.1045E-05  0 -0.5546E-06  1  0.2440E-05  0 -0.3756E-05
   (  5,  7,  1)  (  5,  7,  1)  (  5, 17,  3)  (  5, 18,  2)  (  5, 17,  1)
  0  0.2011E-05  0 -0.7762E-06  1 -0.6945E-06
   (  5, 16,  1)  (  5,  7,  5)  (  5,  7,  1)

 MAXIMUM RESIDUAL FOR EACH ITERATION (1 INDICATES THE FIRST INNER ITERATION):

    RESIDUAL       RESIDUAL       RESIDUAL       RESIDUAL       RESIDUAL    
   LAYER,ROW,COL  LAYER,ROW,COL  LAYER,ROW,COL  LAYER,ROW,COL  LAYER,ROW,COL
 ---------------------------------------------------------------------------
  1  0.3503E-02  0  0.2819E-02  0  0.2023E-02  0  0.1354E-02  0  0.8001E-03
   (  3, 17, 17)  (  3, 17, 17)  (  3, 17, 17)  (  3, 17, 17)  (  3, 17, 17)
  0  0.4339E-03  0  0.2222E-03  0 -0.1805E-03  0 -0.1472E-03  0 -0.1046E-03
   (  3, 20, 11)  (  3, 20, 11)  (  4, 21,  2)  (  4, 21,  2)  (  4, 21,  2)
  0 -0.6988E-04  0  0.4538E-04  0  0.3070E-04  0 -0.2230E-04  0 -0.1638E-04
   (  4, 21,  2)  (  4, 16, 17)  (  4, 16, 17)  (  3, 21,  6)  (  3, 21,  6)
  0 -0.1152E-04  0 -0.7888E-05  0 -0.5003E-05  0 -0.3578E-05  0 -0.2195E-05
   (  3, 21,  6)  (  3, 21,  6)  (  3, 21,  6)  (  3, 21,  6)  (  3, 21,  6)
  0 -0.1089E-05  0  0.6584E-06  0  0.4917E-06  0  0.3681E-06  0  0.2500E-06
   (  3, 21,  5)  (  5, 15, 17)  (  5, 15, 17)  (  5, 15, 17)  (  5, 15, 17)
  0  0.1464E-06  0  0.9161E-07  0  0.7011E-07  0  0.5360E-07  0  0.3784E-07
   (  5, 16, 17)  (  5, 16, 17)  (  3, 21,  6)  (  3, 21,  6)  (  3, 21,  6)
  1  0.3225E-05  0  0.9332E-06  0 -0.4960E-06  0  0.4299E-06  0 -0.3221E-06
   (  5,  6,  3)  (  5,  6,  4)  (  3, 21,  1)  (  5,  6,  1)  (  3, 21,  1)
  0 -0.2636E-06  0 -0.2269E-06  0 -0.1720E-06  0 -0.1292E-06  0  0.8719E-07
   (  3, 21,  1)  (  3, 21,  1)  (  3, 21,  1)  (  4,  3,  9)  (  5,  6,  1)
  0  0.5855E-07  0  0.4141E-07  0 -0.2711E-07  0 -0.1802E-07  0  0.1298E-07
   (  5,  2, 17)  (  5,  2, 17)  (  4, 18, 14)  (  4, 18, 14)  (  4,  3,  9)
  0 -0.7293E-08  0 -0.5279E-08  0  0.3173E-08  1  0.1663E-07  0  0.9845E-08
   (  5,  3,  8)  (  5,  3,  8)  (  4,  3, 17)  (  2, 21,  1)  (  4,  6,  3)
  0  0.4324E-08  0  0.3231E-08  1 -0.2333E-08
   (  2, 21,  1)  (  5,  7,  1)  (  3, 21,  1)



 OUTPUT CONTROL FOR STRESS PERIOD    6   TIME STEP    1
    SAVE HEAD FOR ALL LAYERS
    SAVE DRAWDOWN FOR ALL LAYERS
    SAVE BUDGET
    PRINT BUDGET
 UBDSV1 SAVING "         STORAGE" ON UNIT   9 AT TIME STEP  1, STRESS PERIOD   6
 UBDSV2 SAVING "   CONSTANT HEAD" ON UNIT   9 AT TIME STEP  1, STRESS PERIOD   6
 UBDSV1 SAVING "FLOW RIGHT FACE " ON UNIT   9 AT TIME STEP  1, STRESS PERIOD   6
 UBDSV1 SAVING "FLOW FRONT FACE " ON UNIT   9 AT TIME STEP  1, STRESS PERIOD   6
 UBDSV1 SAVING "FLOW LOWER FACE " ON UNIT   9 AT TIME STEP  1, STRESS PERIOD   6
 UBDSV3 SAVING "        RECHARGE" ON UNIT   9 AT TIME STEP  1, STRESS PERIOD   6

 HEAD WILL BE SAVED ON UNIT   37 AT END OF TIME STEP    1, STRESS PERIOD    6

 DRAWDOWN WILL BE SAVED ON UNIT   38 AT END OF TIME STEP    1, STRESS PERIOD    6
1
  VOLUMETRIC BUDGET FOR ENTIRE MODEL AT END OF TIME STEP    1, STRESS PERIOD   6
  ------------------------------------------------------------------------------

     CUMULATIVE VOLUMES      L**3       RATES FOR THIS TIME STEP      L**3/T
     ------------------                 ------------------------

           IN:                                      IN:
           ---                                      ---
             STORAGE =        3932.3118               STORAGE =       5.0121E-03
       CONSTANT HEAD =         875.7416         CONSTANT HEAD =       2.4003E-03
            RECHARGE =          76.0596              RECHARGE =       9.7813E-05

            TOTAL IN =        4884.1128              TOTAL IN =       7.5102E-03

          OUT:                                     OUT:
          ----                                     ----
             STORAGE =           0.0000               STORAGE =           0.0000
       CONSTANT HEAD =        4884.2002         CONSTANT HEAD =       7.5103E-03
            RECHARGE =           0.0000              RECHARGE =           0.0000

           TOTAL OUT =        4884.2002             TOTAL OUT =       7.5103E-03

            IN - OUT =      -8.7402E-02              IN - OUT =      -9.9652E-08

 PERCENT DISCREPANCY =          -0.00     PERCENT DISCREPANCY =          -0.00






         TIME SUMMARY AT END OF TIME STEP    1 IN STRESS PERIOD    6
                    SECONDS     MINUTES      HOURS       DAYS        YEARS
                    -----------------------------------------------------------
   TIME STEP LENGTH  86400.      1440.0      24.000      1.0000     2.73785E-03
 STRESS PERIOD TIME  86400.      1440.0      24.000      1.0000     2.73785E-03
         TOTAL TIME 7.77600E+05  12960.      216.00      9.0000     2.46407E-02
1
1
                            STRESS PERIOD NO.    7, LENGTH =   86400.00    
                            -----------------------------------------------

                              NUMBER OF TIME STEPS =     1

                               MULTIPLIER FOR DELT =     1.000

                            INITIAL TIME STEP SIZE =   86400.00    

 REUSING RECH FROM LAST STRESS PERIOD

 CHD NO.   LAYER   ROW   COL    START HEAD        END HEAD         IFACE           
 ----------------------------------------------------------------------------------
      1      4      1      1       109.8           109.7           0.000    
      2      5      1      1       109.8           109.7           0.000    
      3      4      1      2       109.8           109.7           0.000    
      4      5      1      2       109.8           109.7           0.000    
      5      4      1      3       109.8           109.7           0.000    
      6      5      1      3       109.8           109.7           0.000    
      7      4      1      4       109.8           109.7           0.000    
      8      5      1      4       109.8           109.7           0.000    
      9      4      1      5       109.8           109.7           0.000    
     10      5      1      5       109.8           109.7           0.000    
     11      4      1      6       109.8           109.7           0.000    
     12      5      1      6       109.8           109.7           0.000    
     13      4      1      7       109.8           109.7           0.000    
     14      5      1      7       109.8           109.7           0.000    
     15      4      1      8       109.8           109.7           0.000    
     16      5      1      8       109.8           109.7           0.000    
     17      4      1      9       109.8           109.7           0.000    
     18      5      1      9       109.8           109.7           0.000    
     19      4      1     10       109.8           109.7           0.000    
     20      5      1     10       109.8           109.7           0.000    
     21      4      1     11       109.8           109.7           0.000    
     22      5      1     11       109.8           109.7           0.000    
     23      4      1     12       109.8           109.7           0.000    
     24      5      1     12       109.8           109.7           0.000    
     25      4      1     13       109.8           109.7           0.000    
     26      5      1     13       109.8           109.7           0.000    
     27      4      1     14       109.8           109.7           0.000    
     28      5      1     14       109.8           109.7           0.000    
     29      4      1     15       109.8           109.7           0.000    
     30      5      1     15       109.8           109.7           0.000    
     31      4      1     16       109.8           109.7           0.000    
     32      5      1     16       109.8           109.7           0.000    
     33      4      1     17       109.8           109.7           0.000    
     34      5      1     17       109.8           109.7           0.000    
     35      4     17     17       109.4           109.3           0.000    
     36      5     17     17       109.4           109.3           0.000    
     37      4     18     17       109.4           109.3           0.000    
     38      5     18     17       109.4           109.3           0.000    
     39      4     18     16       109.4           109.3           0.000    
     40      5     18     16       109.4           109.3           0.000    
     41      4     19     16       109.4           109.3           0.000    
     42      5     19     16       109.4           109.3           0.000    
     43      4     19     15       109.4           109.3           0.000    
     44      5     19     15       109.4           109.3           0.000    
     45      4     20     15       109.4           109.3           0.000    
     46      5     20     15       109.4           109.3           0.000    
     47      4     20     14       109.4           109.3           0.000    
     48      5     20     14       109.4           109.3           0.000    
     49      4     20     13       109.4           109.3           0.000    
     50      5     20     13       109.4           109.3           0.000    
     51      4     20     12       109.4           109.3           0.000    
     52      5     20     12       109.4           109.3           0.000    
     53      4     20     11       109.4           109.3           0.000    
     54      5     20     11       109.4           109.3           0.000    
     55      4     21     11       109.4           109.3           0.000    
     56      5     21     11       109.4           109.3           0.000    
     57      4     21     10       109.4           109.3           0.000    
     58      5     21     10       109.4           109.3           0.000    
     59      4     21      9       109.4           109.3           0.000    
     60      5     21      9       109.4           109.3           0.000    
     61      4     21      8       109.4           109.3           0.000    
     62      5     21      8       109.4           109.3           0.000    
     63      4     21      7       109.4           109.3           0.000    
     64      5     21      7       109.4           109.3           0.000    
     65      4     21      6       109.4           109.3           0.000    
     66      5     21      6       109.4           109.3           0.000    
     67      4     21      5       109.4           109.3           0.000    
     68      5     21      5       109.4           109.3           0.000    
     69      4     22      5       109.4           109.3           0.000    
     70      5     22      5       109.4           109.3           0.000    
     71      4     22      4       109.4           109.3           0.000    
     72      5     22      4       109.4           109.3           0.000    
     73      4     22      3       109.4           109.3           0.000    
     74      5     22      3       109.4           109.3           0.000    
     75      4     22      2       109.4           109.3           0.000    
     76      5     22      2       109.4           109.3           0.000    
     77      4     22      1       109.4           109.3           0.000    
     78      5     22      1       109.4           109.3           0.000    


     78 TIME-VARIANT SPECIFIED-HEAD CELLS

 SOLVING FOR HEAD 

 CELL CONVERSIONS FOR ITER.=  2  LAYER=  2  STEP=  1  PERIOD=   7   (ROW,COL)
    DRY( 19,  1)   DRY( 20,  1)   DRY( 21,  1)   


     4 CALLS TO PCG ROUTINE FOR TIME STEP   1 IN STRESS PERIOD    7
    58 TOTAL ITERATIONS

 MAXIMUM HEAD CHANGE FOR EACH ITERATION (1 INDICATES THE FIRST INNER ITERATION):

    HEAD CHANGE    HEAD CHANGE    HEAD CHANGE    HEAD CHANGE    HEAD CHANGE 
   LAYER,ROW,COL  LAYER,ROW,COL  LAYER,ROW,COL  LAYER,ROW,COL  LAYER,ROW,COL
 ---------------------------------------------------------------------------
  1 -0.3344      0  0.2701      0 -0.2136      0  0.1502      0 -0.9700E-01
   (  5, 21,  2)  (  5, 20,  1)  (  5, 18,  1)  (  5, 17,  1)  (  5, 15,  1)
  0  0.5840E-01  0 -0.4427E-01  0 -0.2191E-01  0 -0.1247E-01  0 -0.7573E-02
   (  5, 19,  1)  (  5, 18,  1)  (  5, 19,  1)  (  5, 11,  2)  (  5, 14,  3)
  0  0.6501E-02  0 -0.5006E-02  0  0.3520E-02  0 -0.1596E-02  0 -0.1073E-02
   (  5, 19,  1)  (  5, 16,  3)  (  5, 15,  3)  (  5, 15,  4)  (  5,  7,  1)
  0  0.7168E-03  0 -0.5675E-03  0  0.3305E-03  0 -0.3757E-03  0 -0.2564E-03
   (  5, 17,  2)  (  5, 16,  2)  (  5,  6,  1)  (  5, 15,  1)  (  5,  6,  1)
  0  0.1753E-03  0 -0.1067E-03  0 -0.6691E-04  0 -0.5302E-04  0  0.3349E-04
   (  5,  6,  1)  (  5,  6,  1)  (  5, 14,  4)  (  5, 19,  2)  (  5, 19,  1)
  0 -0.2316E-04  0  0.1250E-04  0 -0.1005E-04  0  0.4915E-05  0 -0.3617E-05
   (  5, 15,  4)  (  5, 12,  6)  (  5, 11,  6)  (  5, 11,  4)  (  5, 12,  5)
  1 -0.1808E-02  0  0.1816E-02  0 -0.1644E-02  0  0.6336E-03  0 -0.2870E-03
   (  5, 20,  1)  (  5, 18,  1)  (  5, 17,  1)  (  5, 15,  1)  (  5, 14,  1)
  0  0.1479E-03  0  0.1385E-03  0 -0.9282E-04  0 -0.5918E-04  0  0.3436E-04
   (  5, 12,  1)  (  5, 19,  1)  (  5, 21,  3)  (  5, 19,  1)  (  5, 18,  1)
  0  0.2783E-04  0  0.1675E-04  0  0.1541E-04  0 -0.8806E-05  0 -0.5846E-05
   (  5, 19,  1)  (  5, 19,  1)  (  5, 15,  4)  (  5, 14,  4)  (  5, 17,  2)
  0 -0.2771E-05  0 -0.2875E-05  0  0.2143E-05  0 -0.1673E-05  0 -0.1174E-05
   (  5, 20,  1)  (  5, 15,  2)  (  5, 16,  1)  (  5, 17,  1)  (  5,  6,  1)
  0 -0.5455E-06  1  0.8964E-05  0 -0.7829E-05  0  0.4982E-05  0 -0.2364E-05
   (  5,  8,  1)  (  5, 19,  1)  (  5, 18,  1)  (  5, 16,  1)  (  5, 14,  1)
  0  0.1094E-05  0 -0.7166E-06  1  0.5865E-06
   (  5, 18,  2)  (  5, 21,  1)  (  5, 20,  1)

 MAXIMUM RESIDUAL FOR EACH ITERATION (1 INDICATES THE FIRST INNER ITERATION):

    RESIDUAL       RESIDUAL       RESIDUAL       RESIDUAL       RESIDUAL    
   LAYER,ROW,COL  LAYER,ROW,COL  LAYER,ROW,COL  LAYER,ROW,COL  LAYER,ROW,COL
 ---------------------------------------------------------------------------
  1  0.5006E-02  0  0.3898E-02  0  0.2660E-02  0  0.1721E-02  0  0.1055E-02
   (  3, 17, 17)  (  3, 17, 17)  (  3, 17, 17)  (  3, 17, 17)  (  3, 17, 17)
  0  0.6015E-03  0  0.3172E-03  0  0.2429E-03  0 -0.1908E-03  0  0.1345E-03
   (  3, 20, 11)  (  3, 20, 11)  (  4, 16, 17)  (  4, 21,  2)  (  4, 16, 17)
  0  0.9648E-04  0  0.6504E-04  0  0.4328E-04  0 -0.2858E-04  0 -0.2109E-04
   (  4, 16, 17)  (  4, 16, 17)  (  4, 16, 17)  (  3, 21,  6)  (  3, 21,  6)
  0 -0.1470E-04  0 -0.1000E-04  0 -0.6401E-05  0 -0.4634E-05  0 -0.2725E-05
   (  3, 21,  6)  (  3, 21,  6)  (  3, 21,  6)  (  3, 21,  6)  (  3, 21,  6)
  0 -0.1304E-05  0  0.7991E-06  0  0.5909E-06  0  0.4454E-06  0  0.3125E-06
   (  3, 21,  5)  (  5, 15, 17)  (  5, 15, 17)  (  5, 15, 17)  (  5, 15, 17)
  0  0.1857E-06  0  0.1059E-06  0  0.7681E-07  0  0.5810E-07  0  0.4106E-07
   (  5, 15, 17)  (  5, 15, 17)  (  3, 21,  6)  (  3, 21,  6)  (  3, 21,  6)
  1  0.1075E-04  0  0.4986E-05  0 -0.4057E-05  0 -0.3931E-05  0 -0.3179E-05
   (  3, 19,  1)  (  5, 18,  1)  (  4, 21,  2)  (  4, 21,  2)  (  4, 21,  2)
  0 -0.2183E-05  0 -0.1356E-05  0 -0.7678E-06  0 -0.4339E-06  0  0.3509E-06
   (  4, 21,  2)  (  4, 21,  2)  (  4, 21,  2)  (  4, 21,  2)  (  4, 18,  1)
  0  0.2785E-06  0  0.1831E-06  0  0.1378E-06  0  0.1035E-06  0  0.6341E-07
   (  4, 18,  1)  (  4, 18,  1)  (  4, 21,  2)  (  4, 21,  2)  (  4, 21,  2)
  0  0.3334E-07  0 -0.2385E-07  0 -0.2116E-07  0 -0.1503E-07  0 -0.1101E-07
   (  4, 21,  2)  (  4, 20,  2)  (  4, 20,  2)  (  4, 20,  2)  (  4, 20,  2)
  0 -0.7267E-08  1 -0.6698E-07  0 -0.2483E-07  0 -0.1234E-07  0 -0.9529E-08
   (  4, 20,  2)  (  3, 18,  1)  (  3, 18,  1)  (  3, 21,  2)  (  3, 21,  2)
  0  0.7662E-08  0  0.5722E-08  1 -0.4962E-08
   (  4, 20,  2)  (  4, 20,  2)  (  3, 21,  2)



 OUTPUT CONTROL FOR STRESS PERIOD    7   TIME STEP    1
    SAVE HEAD FOR ALL LAYERS
    SAVE DRAWDOWN FOR ALL LAYERS
    SAVE BUDGET
    PRINT BUDGET
 UBDSV1 SAVING "         STORAGE" ON UNIT   9 AT TIME STEP  1, STRESS PERIOD   7
 UBDSV2 SAVING "   CONSTANT HEAD" ON UNIT   9 AT TIME STEP  1, STRESS PERIOD   7
 UBDSV1 SAVING "FLOW RIGHT FACE " ON UNIT   9 AT TIME STEP  1, STRESS PERIOD   7
 UBDSV1 SAVING "FLOW FRONT FACE " ON UNIT   9 AT TIME STEP  1, STRESS PERIOD   7
 UBDSV1 SAVING "FLOW LOWER FACE " ON UNIT   9 AT TIME STEP  1, STRESS PERIOD   7
 UBDSV3 SAVING "        RECHARGE" ON UNIT   9 AT TIME STEP  1, STRESS PERIOD   7

 HEAD WILL BE SAVED ON UNIT   37 AT END OF TIME STEP    1, STRESS PERIOD    7

 DRAWDOWN WILL BE SAVED ON UNIT   38 AT END OF TIME STEP    1, STRESS PERIOD    7
1
  VOLUMETRIC BUDGET FOR ENTIRE MODEL AT END OF TIME STEP    1, STRESS PERIOD   7
  ------------------------------------------------------------------------------

     CUMULATIVE VOLUMES      L**3       RATES FOR THIS TIME STEP      L**3/T
     ------------------                 ------------------------

           IN:                                      IN:
           ---                                      ---
             STORAGE =        4360.8926               STORAGE =       4.9604E-03
       CONSTANT HEAD =        1078.3948         CONSTANT HEAD =       2.3455E-03
            RECHARGE =          84.5107              RECHARGE =       9.7813E-05

            TOTAL IN =        5523.7979              TOTAL IN =       7.4038E-03

          OUT:                                     OUT:
          ----                                     ----
             STORAGE =           0.0000               STORAGE =           0.0000
       CONSTANT HEAD =        5523.8936         CONSTANT HEAD =       7.4039E-03
            RECHARGE =           0.0000              RECHARGE =           0.0000

           TOTAL OUT =        5523.8936             TOTAL OUT =       7.4039E-03

            IN - OUT =      -9.5703E-02              IN - OUT =      -9.8720E-08

 PERCENT DISCREPANCY =          -0.00     PERCENT DISCREPANCY =          -0.00






         TIME SUMMARY AT END OF TIME STEP    1 IN STRESS PERIOD    7
                    SECONDS     MINUTES      HOURS       DAYS        YEARS
                    -----------------------------------------------------------
   TIME STEP LENGTH  86400.      1440.0      24.000      1.0000     2.73785E-03
 STRESS PERIOD TIME  86400.      1440.0      24.000      1.0000     2.73785E-03
         TOTAL TIME 8.64000E+05  14400.      240.00      10.000     2.73785E-02
1
1
                            STRESS PERIOD NO.    8, LENGTH =   86400.00    
                            -----------------------------------------------

                              NUMBER OF TIME STEPS =     1

                               MULTIPLIER FOR DELT =     1.000

                            INITIAL TIME STEP SIZE =   86400.00    

 REUSING RECH FROM LAST STRESS PERIOD

 CHD NO.   LAYER   ROW   COL    START HEAD        END HEAD         IFACE           
 ----------------------------------------------------------------------------------
      1      4      1      1       109.7           109.7           0.000    
      2      5      1      1       109.7           109.7           0.000    
      3      4      1      2       109.7           109.7           0.000    
      4      5      1      2       109.7           109.7           0.000    
      5      4      1      3       109.7           109.7           0.000    
      6      5      1      3       109.7           109.7           0.000    
      7      4      1      4       109.7           109.7           0.000    
      8      5      1      4       109.7           109.7           0.000    
      9      4      1      5       109.7           109.7           0.000    
     10      5      1      5       109.7           109.7           0.000    
     11      4      1      6       109.7           109.7           0.000    
     12      5      1      6       109.7           109.7           0.000    
     13      4      1      7       109.7           109.7           0.000    
     14      5      1      7       109.7           109.7           0.000    
     15      4      1      8       109.7           109.7           0.000    
     16      5      1      8       109.7           109.7           0.000    
     17      4      1      9       109.7           109.7           0.000    
     18      5      1      9       109.7           109.7           0.000    
     19      4      1     10       109.7           109.7           0.000    
     20      5      1     10       109.7           109.7           0.000    
     21      4      1     11       109.7           109.7           0.000    
     22      5      1     11       109.7           109.7           0.000    
     23      4      1     12       109.7           109.7           0.000    
     24      5      1     12       109.7           109.7           0.000    
     25      4      1     13       109.7           109.7           0.000    
     26      5      1     13       109.7           109.7           0.000    
     27      4      1     14       109.7           109.7           0.000    
     28      5      1     14       109.7           109.7           0.000    
     29      4      1     15       109.7           109.7           0.000    
     30      5      1     15       109.7           109.7           0.000    
     31      4      1     16       109.7           109.7           0.000    
     32      5      1     16       109.7           109.7           0.000    
     33      4      1     17       109.7           109.7           0.000    
     34      5      1     17       109.7           109.7           0.000    
     35      4     17     17       109.3           109.2           0.000    
     36      5     17     17       109.3           109.2           0.000    
     37      4     18     17       109.3           109.2           0.000    
     38      5     18     17       109.3           109.2           0.000    
     39      4     18     16       109.3           109.2           0.000    
     40      5     18     16       109.3           109.2           0.000    
     41      4     19     16       109.3           109.2           0.000    
     42      5     19     16       109.3           109.2           0.000    
     43      4     19     15       109.3           109.2           0.000    
     44      5     19     15       109.3           109.2           0.000    
     45      4     20     15       109.3           109.2           0.000    
     46      5     20     15       109.3           109.2           0.000    
     47      4     20     14       109.3           109.2           0.000    
     48      5     20     14       109.3           109.2           0.000    
     49      4     20     13       109.3           109.2           0.000    
     50      5     20     13       109.3           109.2           0.000    
     51      4     20     12       109.3           109.2           0.000    
     52      5     20     12       109.3           109.2           0.000    
     53      4     20     11       109.3           109.2           0.000    
     54      5     20     11       109.3           109.2           0.000    
     55      4     21     11       109.3           109.2           0.000    
     56      5     21     11       109.3           109.2           0.000    
     57      4     21     10       109.3           109.2           0.000    
     58      5     21     10       109.3           109.2           0.000    
     59      4     21      9       109.3           109.2           0.000    
     60      5     21      9       109.3           109.2           0.000    
     61      4     21      8       109.3           109.2           0.000    
     62      5     21      8       109.3           109.2           0.000    
     63      4     21      7       109.3           109.2           0.000    
     64      5     21      7       109.3           109.2           0.000    
     65      4     21      6       109.3           109.2           0.000    
     66      5     21      6       109.3           109.2           0.000    
     67      4     21      5       109.3           109.2           0.000    
     68      5     21      5       109.3           109.2           0.000    
     69      4     22      5       109.3           109.2           0.000    
     70      5     22      5       109.3           109.2           0.000    
     71      4     22      4       109.3           109.2           0.000    
     72      5     22      4       109.3           109.2           0.000    
     73      4     22      3       109.3           109.2           0.000    
     74      5     22      3       109.3           109.2           0.000    
     75      4     22      2       109.3           109.2           0.000    
     76      5     22      2       109.3           109.2           0.000    
     77      4     22      1       109.3           109.2           0.000    
     78      5     22      1       109.3           109.2           0.000    


     78 TIME-VARIANT SPECIFIED-HEAD CELLS

 SOLVING FOR HEAD 

 CELL CONVERSIONS FOR ITER.=  2  LAYER=  2  STEP=  1  PERIOD=   8   (ROW,COL)
    DRY( 16,  1)   DRY( 16,  2)   DRY( 17,  1)   DRY( 17,  2)   DRY( 18,  1)   
    DRY( 18,  2)   DRY( 19,  2)   DRY( 20,  2)   DRY( 21,  2)   


     4 CALLS TO PCG ROUTINE FOR TIME STEP   1 IN STRESS PERIOD    8
    57 TOTAL ITERATIONS

 MAXIMUM HEAD CHANGE FOR EACH ITERATION (1 INDICATES THE FIRST INNER ITERATION):

    HEAD CHANGE    HEAD CHANGE    HEAD CHANGE    HEAD CHANGE    HEAD CHANGE 
   LAYER,ROW,COL  LAYER,ROW,COL  LAYER,ROW,COL  LAYER,ROW,COL  LAYER,ROW,COL
 ---------------------------------------------------------------------------
  1 -0.1816      0  0.1444      0 -0.1147      0  0.7447E-01  0 -0.5245E-01
   (  5, 21,  2)  (  5, 20,  1)  (  5, 18,  1)  (  5, 17,  1)  (  5, 15,  1)
  0  0.2871E-01  0 -0.2306E-01  0 -0.1232E-01  0 -0.6598E-02  0  0.4366E-02
   (  5, 19,  1)  (  5, 18,  1)  (  5, 19,  1)  (  5, 11,  2)  (  5, 16,  3)
  0  0.3216E-02  0 -0.2461E-02  0  0.2010E-02  0 -0.1025E-02  0 -0.5548E-03
   (  5, 19,  1)  (  5, 16,  3)  (  5, 15,  3)  (  5, 15,  4)  (  5,  7,  1)
  0  0.3822E-03  0 -0.3527E-03  0  0.2525E-03  0 -0.2134E-03  0 -0.1685E-03
   (  5, 17,  2)  (  5, 16,  2)  (  5, 16,  1)  (  5, 14,  1)  (  5,  6,  1)
  0  0.9037E-04  0 -0.5964E-04  0 -0.3581E-04  0 -0.2547E-04  0  0.2032E-04
   (  5,  6,  1)  (  5,  6,  1)  (  5, 14,  4)  (  5, 19,  2)  (  5, 19,  1)
  0 -0.1214E-04  0  0.5753E-05  0 -0.4885E-05  0  0.2862E-05  0 -0.2011E-05
   (  5, 15,  4)  (  5, 12,  6)  (  5, 11,  6)  (  5, 13,  5)  (  5, 12,  5)
  1 -0.8886E-03  0 -0.6127E-03  0 -0.1035E-02  0  0.4819E-03  0  0.4512E-03
   (  5, 17,  1)  (  3, 16,  2)  (  5, 14,  1)  (  5, 13,  1)  (  5, 21,  2)
  0 -0.3298E-03  0  0.2516E-03  0 -0.1367E-03  0  0.8583E-04  0  0.5119E-04
   (  5, 20,  1)  (  5, 19,  1)  (  5, 18,  1)  (  5, 17,  1)  (  5, 15,  3)
  0 -0.2923E-04  0  0.2081E-04  0 -0.1165E-04  0 -0.6541E-05  0 -0.6143E-05
   (  5, 14,  3)  (  5, 15,  5)  (  5, 13,  4)  (  5,  8,  1)  (  5, 12,  6)
  0  0.3286E-05  0 -0.3892E-05  0  0.2682E-05  0 -0.1409E-05  0  0.8914E-06
   (  5, 14,  4)  (  5, 17,  1)  (  5, 15,  1)  (  5,  7,  1)  (  5,  7,  1)
  1  0.4799E-05  0 -0.3769E-05  0  0.3677E-05  0 -0.3529E-05  0  0.1318E-05
   (  5, 16,  2)  (  5, 15,  1)  (  5, 18,  1)  (  5, 19,  1)  (  5, 19,  1)
  0 -0.9982E-06  1 -0.5541E-06
   (  5, 17,  1)  (  5, 13,  2)

 MAXIMUM RESIDUAL FOR EACH ITERATION (1 INDICATES THE FIRST INNER ITERATION):

    RESIDUAL       RESIDUAL       RESIDUAL       RESIDUAL       RESIDUAL    
   LAYER,ROW,COL  LAYER,ROW,COL  LAYER,ROW,COL  LAYER,ROW,COL  LAYER,ROW,COL
 ---------------------------------------------------------------------------
  1  0.2451E-02  0  0.1943E-02  0  0.1366E-02  0  0.9039E-03  0  0.5335E-03
   (  3, 17, 17)  (  3, 17, 17)  (  3, 17, 17)  (  3, 17, 17)  (  3, 17, 17)
  0  0.2888E-03  0  0.1471E-03  0 -0.1241E-03  0 -0.1001E-03  0 -0.7041E-04
   (  3, 20, 11)  (  3, 20, 11)  (  4, 21,  2)  (  4, 21,  2)  (  4, 21,  2)
  0 -0.4643E-04  0  0.3131E-04  0  0.2101E-04  0 -0.1518E-04  0 -0.1109E-04
   (  4, 21,  2)  (  4, 16, 17)  (  4, 16, 17)  (  3, 21,  6)  (  3, 21,  6)
  0 -0.7712E-05  0 -0.5328E-05  0 -0.3987E-05  0 -0.2566E-05  0 -0.1397E-05
   (  3, 21,  6)  (  3, 21,  6)  (  3, 21,  6)  (  3, 21,  6)  (  3, 21,  6)
  0 -0.7026E-06  0  0.4319E-06  0  0.3082E-06  0  0.2276E-06  0  0.1614E-06
   (  3, 21,  5)  (  5, 15, 17)  (  5, 15, 17)  (  5, 15, 17)  (  5, 15, 17)
  0  0.9708E-07  0  0.6005E-07  0  0.4777E-07  0  0.3599E-07  0  0.2516E-07
   (  5, 16, 17)  (  5, 16, 17)  (  3, 21,  6)  (  3, 21,  6)  (  3, 21,  6)
  1  0.7666E-05  0  0.5524E-05  0  0.2723E-05  0  0.2840E-05  0 -0.2374E-05
   (  3, 16,  2)  (  3, 16,  1)  (  3, 16,  1)  (  4, 21,  1)  (  4, 21,  2)
  0  0.2136E-05  0 -0.1327E-05  0 -0.1124E-05  0 -0.9231E-06  0 -0.6763E-06
   (  4, 21,  1)  (  4, 21,  2)  (  4, 21,  2)  (  4, 21,  2)  (  4, 21,  2)
  0 -0.3903E-06  0  0.2168E-06  0  0.1704E-06  0  0.1206E-06  0  0.6615E-07
   (  4, 21,  2)  (  4, 20,  2)  (  4, 20,  2)  (  4, 20,  2)  (  4, 20,  2)
  0 -0.4546E-07  0 -0.3614E-07  0 -0.3115E-07  0 -0.2017E-07  0 -0.1120E-07
   (  4, 20,  3)  (  4, 20,  3)  (  4, 20,  3)  (  4, 20,  3)  (  4, 20,  3)
  1 -0.4956E-07  0 -0.3037E-07  0 -0.2006E-07  0 -0.1427E-07  0 -0.1098E-07
   (  3, 15,  1)  (  3, 15,  1)  (  4, 21,  2)  (  4, 21,  2)  (  4, 21,  2)
  0 -0.7650E-08  1 -0.7200E-08
   (  4, 21,  2)  (  4, 21,  2)



 OUTPUT CONTROL FOR STRESS PERIOD    8   TIME STEP    1
    SAVE HEAD FOR ALL LAYERS
    SAVE DRAWDOWN FOR ALL LAYERS
    SAVE BUDGET
    PRINT BUDGET
 UBDSV1 SAVING "         STORAGE" ON UNIT   9 AT TIME STEP  1, STRESS PERIOD   8
 UBDSV2 SAVING "   CONSTANT HEAD" ON UNIT   9 AT TIME STEP  1, STRESS PERIOD   8
 UBDSV1 SAVING "FLOW RIGHT FACE " ON UNIT   9 AT TIME STEP  1, STRESS PERIOD   8
 UBDSV1 SAVING "FLOW FRONT FACE " ON UNIT   9 AT TIME STEP  1, STRESS PERIOD   8
 UBDSV1 SAVING "FLOW LOWER FACE " ON UNIT   9 AT TIME STEP  1, STRESS PERIOD   8
 UBDSV3 SAVING "        RECHARGE" ON UNIT   9 AT TIME STEP  1, STRESS PERIOD   8

 HEAD WILL BE SAVED ON UNIT   37 AT END OF TIME STEP    1, STRESS PERIOD    8

 DRAWDOWN WILL BE SAVED ON UNIT   38 AT END OF TIME STEP    1, STRESS PERIOD    8
1
  VOLUMETRIC BUDGET FOR ENTIRE MODEL AT END OF TIME STEP    1, STRESS PERIOD   8
  ------------------------------------------------------------------------------

     CUMULATIVE VOLUMES      L**3       RATES FOR THIS TIME STEP      L**3/T
     ------------------                 ------------------------

           IN:                                      IN:
           ---                                      ---
             STORAGE =        4644.2759               STORAGE =       3.2799E-03
       CONSTANT HEAD =        1331.7933         CONSTANT HEAD =       2.9329E-03
            RECHARGE =          92.9618              RECHARGE =       9.7813E-05

            TOTAL IN =        6069.0312              TOTAL IN =       6.3106E-03

          OUT:                                     OUT:
          ----                                     ----
             STORAGE =           0.0000               STORAGE =           0.0000
       CONSTANT HEAD =        6069.1353         CONSTANT HEAD =       6.3107E-03
            RECHARGE =           0.0000              RECHARGE =           0.0000

           TOTAL OUT =        6069.1353             TOTAL OUT =       6.3107E-03

            IN - OUT =          -0.1040              IN - OUT =      -1.0291E-07

 PERCENT DISCREPANCY =          -0.00     PERCENT DISCREPANCY =          -0.00






         TIME SUMMARY AT END OF TIME STEP    1 IN STRESS PERIOD    8
                    SECONDS     MINUTES      HOURS       DAYS        YEARS
                    -----------------------------------------------------------
   TIME STEP LENGTH  86400.      1440.0      24.000      1.0000     2.73785E-03
 STRESS PERIOD TIME  86400.      1440.0      24.000      1.0000     2.73785E-03
         TOTAL TIME 9.50400E+05  15840.      264.00      11.000     3.01164E-02
1
1
                            STRESS PERIOD NO.    9, LENGTH =   259200.0    
                            -----------------------------------------------

                              NUMBER OF TIME STEPS =     3

                               MULTIPLIER FOR DELT =     1.000

                            INITIAL TIME STEP SIZE =   86400.00    

 REUSING RECH FROM LAST STRESS PERIOD

 CHD NO.   LAYER   ROW   COL    START HEAD        END HEAD         IFACE           
 ----------------------------------------------------------------------------------
      1      4      1      1       109.7           109.5           0.000    
      2      5      1      1       109.7           109.5           0.000    
      3      4      1      2       109.7           109.5           0.000    
      4      5      1      2       109.7           109.5           0.000    
      5      4      1      3       109.7           109.5           0.000    
      6      5      1      3       109.7           109.5           0.000    
      7      4      1      4       109.7           109.5           0.000    
      8      5      1      4       109.7           109.5           0.000    
      9      4      1      5       109.7           109.5           0.000    
     10      5      1      5       109.7           109.5           0.000    
     11      4      1      6       109.7           109.5           0.000    
     12      5      1      6       109.7           109.5           0.000    
     13      4      1      7       109.7           109.5           0.000    
     14      5      1      7       109.7           109.5           0.000    
     15      4      1      8       109.7           109.5           0.000    
     16      5      1      8       109.7           109.5           0.000    
     17      4      1      9       109.7           109.5           0.000    
     18      5      1      9       109.7           109.5           0.000    
     19      4      1     10       109.7           109.5           0.000    
     20      5      1     10       109.7           109.5           0.000    
     21      4      1     11       109.7           109.5           0.000    
     22      5      1     11       109.7           109.5           0.000    
     23      4      1     12       109.7           109.5           0.000    
     24      5      1     12       109.7           109.5           0.000    
     25      4      1     13       109.7           109.5           0.000    
     26      5      1     13       109.7           109.5           0.000    
     27      4      1     14       109.7           109.5           0.000    
     28      5      1     14       109.7           109.5           0.000    
     29      4      1     15       109.7           109.5           0.000    
     30      5      1     15       109.7           109.5           0.000    
     31      4      1     16       109.7           109.5           0.000    
     32      5      1     16       109.7           109.5           0.000    
     33      4      1     17       109.7           109.5           0.000    
     34      5      1     17       109.7           109.5           0.000    
     35      4     17     17       109.2           109.1           0.000    
     36      5     17     17       109.2           109.1           0.000    
     37      4     18     17       109.2           109.1           0.000    
     38      5     18     17       109.2           109.1           0.000    
     39      4     18     16       109.2           109.1           0.000    
     40      5     18     16       109.2           109.1           0.000    
     41      4     19     16       109.2           109.1           0.000    
     42      5     19     16       109.2           109.1           0.000    
     43      4     19     15       109.2           109.1           0.000    
     44      5     19     15       109.2           109.1           0.000    
     45      4     20     15       109.2           109.1           0.000    
     46      5     20     15       109.2           109.1           0.000    
     47      4     20     14       109.2           109.1           0.000    
     48      5     20     14       109.2           109.1           0.000    
     49      4     20     13       109.2           109.1           0.000    
     50      5     20     13       109.2           109.1           0.000    
     51      4     20     12       109.2           109.1           0.000    
     52      5     20     12       109.2           109.1           0.000    
     53      4     20     11       109.2           109.1           0.000    
     54      5     20     11       109.2           109.1           0.000    
     55      4     21     11       109.2           109.1           0.000    
     56      5     21     11       109.2           109.1           0.000    
     57      4     21     10       109.2           109.1           0.000    
     58      5     21     10       109.2           109.1           0.000    
     59      4     21      9       109.2           109.1           0.000    
     60      5     21      9       109.2           109.1           0.000    
     61      4     21      8       109.2           109.1           0.000    
     62      5     21      8       109.2           109.1           0.000    
     63      4     21      7       109.2           109.1           0.000    
     64      5     21      7       109.2           109.1           0.000    
     65      4     21      6       109.2           109.1           0.000    
     66      5     21      6       109.2           109.1           0.000    
     67      4     21      5       109.2           109.1           0.000    
     68      5     21      5       109.2           109.1           0.000    
     69      4     22      5       109.2           109.1           0.000    
     70      5     22      5       109.2           109.1           0.000    
     71      4     22      4       109.2           109.1           0.000    
     72      5     22      4       109.2           109.1           0.000    
     73      4     22      3       109.2           109.1           0.000    
     74      5     22      3       109.2           109.1           0.000    
     75      4     22      2       109.2           109.1           0.000    
     76      5     22      2       109.2           109.1           0.000    
     77      4     22      1       109.2           109.1           0.000    
     78      5     22      1       109.2           109.1           0.000    


     78 TIME-VARIANT SPECIFIED-HEAD CELLS

 SOLVING FOR HEAD 

 CELL CONVERSIONS FOR ITER.=  2  LAYER=  2  STEP=  1  PERIOD=   9   (ROW,COL)
    DRY( 13,  1)   DRY( 13,  2)   DRY( 13,  3)   DRY( 14,  1)   DRY( 14,  2)   
    DRY( 14,  3)   DRY( 15,  1)   DRY( 15,  2)   DRY( 15,  3)   DRY( 16,  3)   


     4 CALLS TO PCG ROUTINE FOR TIME STEP   1 IN STRESS PERIOD    9
    58 TOTAL ITERATIONS

 MAXIMUM HEAD CHANGE FOR EACH ITERATION (1 INDICATES THE FIRST INNER ITERATION):

    HEAD CHANGE    HEAD CHANGE    HEAD CHANGE    HEAD CHANGE    HEAD CHANGE 
   LAYER,ROW,COL  LAYER,ROW,COL  LAYER,ROW,COL  LAYER,ROW,COL  LAYER,ROW,COL
 ---------------------------------------------------------------------------
  1 -0.1686      0  0.1382      0 -0.1054      0  0.7525E-01  0 -0.4829E-01
   (  5, 21,  2)  (  5, 20,  1)  (  5, 18,  1)  (  5, 17,  1)  (  5, 15,  1)
  0  0.2696E-01  0 -0.2143E-01  0 -0.1104E-01  0  0.6175E-02  0  0.3637E-02
   (  5, 14,  1)  (  5, 18,  1)  (  5, 19,  1)  (  5, 18,  1)  (  5, 19,  1)
  0  0.3084E-02  0 -0.2420E-02  0  0.1737E-02  0 -0.8480E-03  0 -0.4891E-03
   (  5, 19,  1)  (  5, 16,  3)  (  5, 15,  3)  (  5, 15,  4)  (  5,  7,  1)
  0  0.3326E-03  0 -0.2655E-03  0  0.1466E-03  0 -0.1754E-03  0  0.1303E-03
   (  5, 17,  2)  (  5, 16,  2)  (  5,  6,  1)  (  5, 15,  1)  (  5, 17,  1)
  0  0.7809E-04  0 -0.5259E-04  0 -0.3046E-04  0 -0.2574E-04  0  0.1527E-04
   (  5,  6,  1)  (  5,  6,  1)  (  5, 14,  4)  (  5, 19,  2)  (  5, 19,  1)
  0 -0.1103E-04  0  0.5751E-05  0 -0.4791E-05  0 -0.2426E-05  0  0.1846E-05
   (  5, 15,  4)  (  5, 12,  6)  (  5, 11,  6)  (  5, 17,  4)  (  5, 16,  4)
  1 -0.9070E-03  0 -0.5803E-03  0 -0.9938E-03  0  0.6187E-03  0 -0.4559E-03
   (  5, 14,  2)  (  3, 13,  3)  (  5, 16,  1)  (  5, 18,  1)  (  5, 19,  1)
  0 -0.2042E-03  0 -0.1358E-03  0 -0.9982E-04  0  0.8751E-04  0  0.5837E-04
   (  5,  9,  1)  (  5, 18,  6)  (  5, 13,  3)  (  5, 20,  1)  (  5, 16,  2)
  0  0.2900E-04  0  0.2085E-04  0  0.1534E-04  0 -0.7735E-05  0 -0.7431E-05
   (  5, 19,  1)  (  5, 14,  5)  (  5, 20,  1)  (  5, 21,  1)  (  5,  6,  1)
  0  0.4964E-05  0 -0.5073E-05  0 -0.2792E-05  0  0.1560E-05  0 -0.1001E-05
   (  5,  6,  1)  (  5, 16,  1)  (  5,  6,  1)  (  5,  6,  1)  (  5,  6,  1)
  0  0.7244E-06  1  0.2861E-05  0  0.2737E-05  0 -0.2783E-05  0  0.1582E-05
   (  5,  7,  1)  (  5, 13,  2)  (  5, 18,  1)  (  5, 18,  1)  (  5, 21,  2)
  0 -0.1385E-05  0 -0.7458E-06  1  0.4887E-06
   (  5, 20,  1)  (  5, 16,  1)  (  5, 15,  1)

 MAXIMUM RESIDUAL FOR EACH ITERATION (1 INDICATES THE FIRST INNER ITERATION):

    RESIDUAL       RESIDUAL       RESIDUAL       RESIDUAL       RESIDUAL    
   LAYER,ROW,COL  LAYER,ROW,COL  LAYER,ROW,COL  LAYER,ROW,COL  LAYER,ROW,COL
 ---------------------------------------------------------------------------
  1  0.2296E-02  0  0.1770E-02  0  0.1196E-02  0  0.7625E-03  0  0.4567E-03
   (  3, 17, 17)  (  3, 17, 17)  (  3, 17, 17)  (  3, 17, 17)  (  3, 17, 17)
  0  0.2556E-03  0  0.1318E-03  0 -0.1143E-03  0 -0.9051E-04  0 -0.6252E-04
   (  3, 20, 11)  (  3, 20, 11)  (  4, 21,  2)  (  4, 21,  2)  (  4, 21,  2)
  0  0.4279E-04  0  0.2863E-04  0  0.1886E-04  0 -0.1365E-04  0 -0.9977E-05
   (  4, 16, 17)  (  4, 16, 17)  (  4, 16, 17)  (  3, 21,  6)  (  3, 21,  6)
  0 -0.6906E-05  0 -0.4640E-05  0 -0.2839E-05  0 -0.1896E-05  0 -0.1185E-05
   (  3, 21,  6)  (  3, 21,  6)  (  3, 21,  6)  (  3, 21,  6)  (  3, 21,  6)
  0 -0.5974E-06  0  0.3868E-06  0  0.2841E-06  0  0.2089E-06  0  0.1424E-06
   (  3, 21,  5)  (  5, 15, 17)  (  5, 15, 17)  (  5, 15, 17)  (  5, 15, 17)
  0  0.8724E-07  0  0.5414E-07  0  0.4265E-07  0  0.3157E-07  0  0.2204E-07
   (  5, 16, 17)  (  5, 16, 17)  (  3, 21,  6)  (  3, 21,  6)  (  3, 21,  6)
  1  0.6404E-05  0  0.5101E-05  0  0.3220E-05  0 -0.2300E-05  0 -0.1647E-05
   (  3, 13,  3)  (  3, 13,  1)  (  3, 13,  1)  (  4, 16,  3)  (  4, 16,  3)
  0 -0.1371E-05  0 -0.8595E-06  0  0.5775E-06  0 -0.4984E-06  0  0.4739E-06
   (  4, 16,  3)  (  4, 16,  3)  (  4, 21,  1)  (  4, 21,  2)  (  4, 12,  2)
  0 -0.3258E-06  0 -0.2047E-06  0 -0.1262E-06  0  0.7770E-07  0  0.4520E-07
   (  4, 21,  2)  (  4, 21,  2)  (  4, 21,  2)  (  4, 13,  2)  (  4, 20,  2)
  0  0.3586E-07  0  0.3087E-07  0  0.2232E-07  0  0.1666E-07  0  0.1068E-07
   (  4, 21,  3)  (  4, 21,  3)  (  4, 21,  3)  (  4, 21,  2)  (  4, 21,  2)
  0 -0.6510E-08  1 -0.3275E-07  0 -0.2016E-07  0 -0.9483E-08  0 -0.8263E-08
   (  4, 20,  3)  (  3, 12,  1)  (  3, 12,  1)  (  3, 12,  1)  (  4, 21,  2)
  0 -0.5173E-08  0 -0.3777E-08  1 -0.3975E-08
   (  4, 21,  2)  (  4, 21,  2)  (  4, 21,  2)



 OUTPUT CONTROL FOR STRESS PERIOD    9   TIME STEP    1
    SAVE HEAD FOR ALL LAYERS
    SAVE DRAWDOWN FOR ALL LAYERS
    SAVE BUDGET
    PRINT BUDGET
 UBDSV1 SAVING "         STORAGE" ON UNIT   9 AT TIME STEP  1, STRESS PERIOD   9
 UBDSV2 SAVING "   CONSTANT HEAD" ON UNIT   9 AT TIME STEP  1, STRESS PERIOD   9
 UBDSV1 SAVING "FLOW RIGHT FACE " ON UNIT   9 AT TIME STEP  1, STRESS PERIOD   9
 UBDSV1 SAVING "FLOW FRONT FACE " ON UNIT   9 AT TIME STEP  1, STRESS PERIOD   9
 UBDSV1 SAVING "FLOW LOWER FACE " ON UNIT   9 AT TIME STEP  1, STRESS PERIOD   9
 UBDSV3 SAVING "        RECHARGE" ON UNIT   9 AT TIME STEP  1, STRESS PERIOD   9

 HEAD WILL BE SAVED ON UNIT   37 AT END OF TIME STEP    1, STRESS PERIOD    9

 DRAWDOWN WILL BE SAVED ON UNIT   38 AT END OF TIME STEP    1, STRESS PERIOD    9
1
  VOLUMETRIC BUDGET FOR ENTIRE MODEL AT END OF TIME STEP    1, STRESS PERIOD   9
  ------------------------------------------------------------------------------

     CUMULATIVE VOLUMES      L**3       RATES FOR THIS TIME STEP      L**3/T
     ------------------                 ------------------------

           IN:                                      IN:
           ---                                      ---
             STORAGE =        4882.6992               STORAGE =       2.7595E-03
       CONSTANT HEAD =        1590.1899         CONSTANT HEAD =       2.9907E-03
            RECHARGE =         101.4129              RECHARGE =       9.7813E-05

            TOTAL IN =        6574.3022              TOTAL IN =       5.8480E-03

          OUT:                                     OUT:
          ----                                     ----
             STORAGE =           0.0000               STORAGE =           0.0000
       CONSTANT HEAD =        6574.4155         CONSTANT HEAD =       5.8481E-03
            RECHARGE =           0.0000              RECHARGE =           0.0000

           TOTAL OUT =        6574.4155             TOTAL OUT =       5.8481E-03

            IN - OUT =          -0.1133              IN - OUT =      -1.0477E-07

 PERCENT DISCREPANCY =          -0.00     PERCENT DISCREPANCY =          -0.00






         TIME SUMMARY AT END OF TIME STEP    1 IN STRESS PERIOD    9
                    SECONDS     MINUTES      HOURS       DAYS        YEARS
                    -----------------------------------------------------------
   TIME STEP LENGTH  86400.      1440.0      24.000      1.0000     2.73785E-03
 STRESS PERIOD TIME  86400.      1440.0      24.000      1.0000     2.73785E-03
         TOTAL TIME 1.03680E+06  17280.      288.00      12.000     3.28542E-02
1

 SOLVING FOR HEAD 

 CELL CONVERSIONS FOR ITER.=  2  LAYER=  2  STEP=  2  PERIOD=   9   (ROW,COL)
    DRY( 10,  3)   DRY( 10,  4)   DRY( 11,  1)   DRY( 11,  2)   DRY( 11,  3)   
    DRY( 11,  4)   DRY( 12,  1)   DRY( 12,  2)   DRY( 12,  3)   DRY( 12,  4)   
    DRY( 17,  3)   DRY( 18,  3)   
     4 CALLS TO PCG ROUTINE FOR TIME STEP   2 IN STRESS PERIOD    9
    56 TOTAL ITERATIONS

 MAXIMUM HEAD CHANGE FOR EACH ITERATION (1 INDICATES THE FIRST INNER ITERATION):

    HEAD CHANGE    HEAD CHANGE    HEAD CHANGE    HEAD CHANGE    HEAD CHANGE 
   LAYER,ROW,COL  LAYER,ROW,COL  LAYER,ROW,COL  LAYER,ROW,COL  LAYER,ROW,COL
 ---------------------------------------------------------------------------
  1 -0.1649      0  0.1328      0 -0.1022      0  0.7355E-01  0 -0.4671E-01
   (  5, 21,  2)  (  5, 20,  1)  (  5, 18,  1)  (  5, 17,  1)  (  5, 16,  1)
  0  0.2868E-01  0 -0.2212E-01  0 -0.1029E-01  0  0.5967E-02  0 -0.3821E-02
   (  5, 19,  1)  (  5, 18,  1)  (  5, 19,  1)  (  5, 18,  1)  (  5, 14,  3)
  0  0.3132E-02  0 -0.2407E-02  0  0.1636E-02  0 -0.7468E-03  0 -0.4865E-03
   (  5, 19,  1)  (  5, 16,  3)  (  5, 15,  3)  (  5, 15,  4)  (  5,  7,  1)
  0  0.3259E-03  0 -0.2485E-03  0  0.1345E-03  0 -0.1779E-03  0 -0.1198E-03
   (  5, 17,  2)  (  5, 16,  2)  (  5,  6,  1)  (  5,  6,  1)  (  5, 15,  1)
  0  0.7502E-04  0 -0.5044E-04  0  0.3165E-04  0 -0.2563E-04  0  0.1569E-04
   (  5, 17,  1)  (  5,  6,  1)  (  5, 18,  1)  (  5, 19,  2)  (  5, 19,  1)
  0 -0.1043E-04  0  0.5518E-05  0 -0.4600E-05  0 -0.2144E-05  0 -0.1549E-05
   (  5, 15,  4)  (  5, 12,  6)  (  5, 11,  6)  (  5, 16,  5)  (  5, 12,  5)
  1 -0.8443E-03  0 -0.8301E-03  0 -0.6252E-03  0 -0.3236E-03  0  0.2513E-03
   (  5, 12,  4)  (  3, 10,  3)  (  5, 11,  1)  (  3, 10,  3)  (  5, 19,  1)
  0 -0.2131E-03  0  0.1482E-03  0 -0.8558E-04  0  0.4493E-04  0  0.3863E-04
   (  5, 20,  1)  (  5, 20,  1)  (  5, 20,  1)  (  5, 14,  3)  (  5, 16,  1)
  0 -0.2712E-04  0  0.1876E-04  0 -0.1032E-04  0  0.7834E-05  0 -0.4117E-05
   (  5, 17,  1)  (  5, 15,  5)  (  5,  6,  2)  (  5, 18,  3)  (  5,  6,  2)
  0 -0.4469E-05  0  0.2086E-05  0 -0.1804E-05  0  0.1231E-05  0 -0.9280E-06
   (  5,  7,  1)  (  5,  6,  1)  (  5,  6,  1)  (  5,  6,  1)  (  5,  6,  1)
  1  0.2580E-05  0  0.2114E-05  0 -0.2184E-05  0  0.1124E-05  0 -0.7943E-06
   (  5,  6,  1)  (  5, 19,  1)  (  5, 18,  1)  (  5, 17,  1)  (  5, 17,  1)
  1  0.6082E-06
   (  5, 18,  1)

 MAXIMUM RESIDUAL FOR EACH ITERATION (1 INDICATES THE FIRST INNER ITERATION):

    RESIDUAL       RESIDUAL       RESIDUAL       RESIDUAL       RESIDUAL    
   LAYER,ROW,COL  LAYER,ROW,COL  LAYER,ROW,COL  LAYER,ROW,COL  LAYER,ROW,COL
 ---------------------------------------------------------------------------
  1  0.2308E-02  0  0.1773E-02  0  0.1181E-02  0  0.7408E-03  0  0.4473E-03
   (  3, 17, 17)  (  3, 17, 17)  (  3, 17, 17)  (  3, 17, 17)  (  3, 17, 17)
  0  0.2550E-03  0  0.1321E-03  0 -0.1133E-03  0 -0.8884E-04  0 -0.6076E-04
   (  3, 20, 11)  (  3, 20, 11)  (  4, 21,  2)  (  4, 21,  2)  (  4, 21,  2)
  0  0.4290E-04  0  0.2848E-04  0  0.1867E-04  0 -0.1331E-04  0 -0.9766E-05
   (  4, 16, 17)  (  4, 16, 17)  (  4, 16, 17)  (  3, 21,  6)  (  3, 21,  6)
  0 -0.6757E-05  0 -0.4515E-05  0 -0.2702E-05  0 -0.1531E-05  0 -0.8959E-06
   (  3, 21,  6)  (  3, 21,  6)  (  3, 21,  6)  (  3, 21,  6)  (  3, 21,  6)
  0 -0.5635E-06  0  0.3733E-06  0  0.2725E-06  0  0.2010E-06  0  0.1379E-06
   (  3, 21,  5)  (  5, 15, 17)  (  5, 15, 17)  (  5, 15, 17)  (  5, 15, 17)
  0  0.8344E-07  0  0.5191E-07  0  0.4046E-07  0  0.2977E-07  0  0.2105E-07
   (  5, 16, 17)  (  5, 16, 17)  (  3, 21,  6)  (  3, 21,  6)  (  3, 21,  6)
  1  0.5653E-05  0  0.3681E-05  0  0.2407E-05  0 -0.1637E-05  0 -0.1483E-05
   (  3, 10,  4)  (  3, 10,  4)  (  3, 10,  4)  (  4, 12,  4)  (  4, 12,  4)
  0 -0.1098E-05  0 -0.5821E-06  0  0.3866E-06  0  0.3533E-06  0 -0.3080E-06
   (  4, 12,  4)  (  4, 12,  4)  (  4, 21,  1)  (  4, 10,  2)  (  4, 21,  2)
  0 -0.2521E-06  0 -0.1882E-06  0 -0.1136E-06  0  0.8115E-07  0  0.2948E-07
   (  4, 21,  2)  (  4, 21,  2)  (  4, 21,  2)  (  4, 10,  2)  (  4, 21,  4)
  0  0.3098E-07  0  0.2635E-07  0  0.1716E-07  0  0.1055E-07  0  0.7033E-08
   (  4, 21,  3)  (  4, 21,  3)  (  4, 21,  3)  (  4, 21,  2)  (  4, 21,  2)
  1  0.1545E-07  0  0.9856E-08  0 -0.5592E-08  0 -0.6137E-08  0 -0.4732E-08
   (  2, 10,  2)  (  2, 10,  2)  (  3, 14,  4)  (  4, 21,  2)  (  4, 21,  2)
  1 -0.4768E-08
   (  4, 21,  2)



 OUTPUT CONTROL FOR STRESS PERIOD    9   TIME STEP    2
    SAVE HEAD FOR ALL LAYERS
    SAVE DRAWDOWN FOR ALL LAYERS
    SAVE BUDGET
    PRINT BUDGET
 UBDSV1 SAVING "         STORAGE" ON UNIT   9 AT TIME STEP  2, STRESS PERIOD   9
 UBDSV2 SAVING "   CONSTANT HEAD" ON UNIT   9 AT TIME STEP  2, STRESS PERIOD   9
 UBDSV1 SAVING "FLOW RIGHT FACE " ON UNIT   9 AT TIME STEP  2, STRESS PERIOD   9
 UBDSV1 SAVING "FLOW FRONT FACE " ON UNIT   9 AT TIME STEP  2, STRESS PERIOD   9
 UBDSV1 SAVING "FLOW LOWER FACE " ON UNIT   9 AT TIME STEP  2, STRESS PERIOD   9
 UBDSV3 SAVING "        RECHARGE" ON UNIT   9 AT TIME STEP  2, STRESS PERIOD   9

 HEAD WILL BE SAVED ON UNIT   37 AT END OF TIME STEP    2, STRESS PERIOD    9

 DRAWDOWN WILL BE SAVED ON UNIT   38 AT END OF TIME STEP    2, STRESS PERIOD    9
1
  VOLUMETRIC BUDGET FOR ENTIRE MODEL AT END OF TIME STEP    2, STRESS PERIOD   9
  ------------------------------------------------------------------------------

     CUMULATIVE VOLUMES      L**3       RATES FOR THIS TIME STEP      L**3/T
     ------------------                 ------------------------

           IN:                                      IN:
           ---                                      ---
             STORAGE =        5105.0732               STORAGE =       2.5738E-03
       CONSTANT HEAD =        1843.0472         CONSTANT HEAD =       2.9266E-03
            RECHARGE =         109.8639              RECHARGE =       9.7813E-05

            TOTAL IN =        7057.9844              TOTAL IN =       5.5982E-03

          OUT:                                     OUT:
          ----                                     ----
             STORAGE =           0.0000               STORAGE =           0.0000
       CONSTANT HEAD =        7058.1064         CONSTANT HEAD =       5.5983E-03
            RECHARGE =           0.0000              RECHARGE =           0.0000

           TOTAL OUT =        7058.1064             TOTAL OUT =       5.5983E-03

            IN - OUT =          -0.1221              IN - OUT =      -1.0012E-07

 PERCENT DISCREPANCY =          -0.00     PERCENT DISCREPANCY =          -0.00






         TIME SUMMARY AT END OF TIME STEP    2 IN STRESS PERIOD    9
                    SECONDS     MINUTES      HOURS       DAYS        YEARS
                    -----------------------------------------------------------
   TIME STEP LENGTH  86400.      1440.0      24.000      1.0000     2.73785E-03
 STRESS PERIOD TIME 1.72800E+05  2880.0      48.000      2.0000     5.47570E-03
         TOTAL TIME 1.12320E+06  18720.      312.00      13.000     3.55921E-02
1

 SOLVING FOR HEAD 

 CELL CONVERSIONS FOR ITER.=  2  LAYER=  2  STEP=  3  PERIOD=   9   (ROW,COL)
    DRY(  9,  4)   DRY( 10,  2)   DRY( 13,  4)   DRY( 14,  4)   DRY( 19,  3)   
    DRY( 20,  3)   
     4 CALLS TO PCG ROUTINE FOR TIME STEP   3 IN STRESS PERIOD    9
    52 TOTAL ITERATIONS

 MAXIMUM HEAD CHANGE FOR EACH ITERATION (1 INDICATES THE FIRST INNER ITERATION):

    HEAD CHANGE    HEAD CHANGE    HEAD CHANGE    HEAD CHANGE    HEAD CHANGE 
   LAYER,ROW,COL  LAYER,ROW,COL  LAYER,ROW,COL  LAYER,ROW,COL  LAYER,ROW,COL
 ---------------------------------------------------------------------------
  1 -0.1637      0  0.1335      0 -0.1031      0  0.7335E-01  0 -0.4603E-01
   (  5, 21,  2)  (  5, 20,  1)  (  5, 18,  1)  (  5, 17,  1)  (  5, 15,  1)
  0  0.2748E-01  0 -0.2097E-01  0 -0.9665E-02  0 -0.5957E-02  0 -0.3763E-02
   (  5, 19,  1)  (  5, 18,  1)  (  5, 19,  1)  (  5, 11,  2)  (  5, 14,  3)
  0  0.2983E-02  0 -0.2420E-02  0  0.1649E-02  0 -0.7534E-03  0 -0.4890E-03
   (  5, 19,  1)  (  5, 16,  3)  (  5, 15,  3)  (  5, 15,  4)  (  5,  7,  1)
  0  0.3138E-03  0 -0.2545E-03  0  0.1399E-03  0 -0.1523E-03  0  0.1250E-03
   (  5, 17,  2)  (  5, 16,  2)  (  5,  6,  1)  (  5, 15,  1)  (  5, 17,  1)
  0 -0.7855E-04  0 -0.5345E-04  0 -0.3102E-04  0  0.1751E-04  0 -0.1606E-04
   (  5, 18,  2)  (  5,  6,  1)  (  5, 14,  4)  (  5, 16,  4)  (  5, 18,  1)
  0  0.1011E-04  0  0.4894E-05  0 -0.4387E-05  0  0.2288E-05  0 -0.1760E-05
   (  5, 19,  1)  (  5, 12,  6)  (  5, 11,  6)  (  5, 11,  4)  (  5, 12,  5)
  1 -0.4565E-03  0 -0.4834E-03  0  0.2626E-03  0 -0.3149E-03  0  0.1887E-03
   (  3,  9,  4)  (  5, 15,  1)  (  5, 15,  1)  (  5, 19,  1)  (  5, 18,  1)
  0  0.7268E-04  0 -0.5050E-04  0  0.4627E-04  0 -0.2319E-04  0  0.1908E-04
   (  5, 14,  2)  (  5, 20,  1)  (  5, 20,  2)  (  5, 19,  1)  (  5, 18,  1)
  0 -0.1324E-04  0 -0.7829E-05  0 -0.6014E-05  0 -0.4802E-05  0  0.3222E-05
   (  5, 11,  3)  (  5, 14,  2)  (  5, 13,  4)  (  5,  6,  1)  (  5,  6,  1)
  0 -0.1923E-05  0 -0.7373E-06  1 -0.1344E-05  0  0.1610E-05  0 -0.1105E-05
   (  5,  6,  1)  (  5, 19,  3)  (  5, 18,  1)  (  5, 16,  1)  (  5, 15,  1)
  0 -0.7603E-06  1  0.4275E-06
   (  5,  7,  1)  (  5,  6,  1)

 MAXIMUM RESIDUAL FOR EACH ITERATION (1 INDICATES THE FIRST INNER ITERATION):

    RESIDUAL       RESIDUAL       RESIDUAL       RESIDUAL       RESIDUAL    
   LAYER,ROW,COL  LAYER,ROW,COL  LAYER,ROW,COL  LAYER,ROW,COL  LAYER,ROW,COL
 ---------------------------------------------------------------------------
  1  0.2310E-02  0  0.1769E-02  0  0.1183E-02  0  0.7467E-03  0  0.4521E-03
   (  3, 17, 17)  (  3, 17, 17)  (  3, 17, 17)  (  3, 17, 17)  (  3, 17, 17)
  0  0.2541E-03  0  0.1323E-03  0 -0.1128E-03  0 -0.8785E-04  0  0.6059E-04
   (  3, 20, 11)  (  4, 16, 17)  (  4, 21,  2)  (  4, 21,  2)  (  4, 16, 17)
  0  0.4280E-04  0  0.2829E-04  0  0.1851E-04  0 -0.1314E-04  0 -0.9641E-05
   (  4, 16, 17)  (  4, 16, 17)  (  4, 16, 17)  (  3, 21,  6)  (  3, 21,  6)
  0 -0.6679E-05  0 -0.4469E-05  0 -0.2677E-05  0 -0.1640E-05  0 -0.1064E-05
   (  3, 21,  6)  (  3, 21,  6)  (  3, 21,  6)  (  3, 21,  6)  (  3, 21,  6)
  0 -0.5589E-06  0  0.3666E-06  0  0.2508E-06  0  0.1689E-06  0  0.1250E-06
   (  3, 21,  5)  (  5, 15, 17)  (  5, 15, 17)  (  5, 15, 17)  (  5, 15, 17)
  0  0.8109E-07  0  0.5034E-07  0  0.3954E-07  0  0.2903E-07  0  0.2011E-07
   (  5, 16, 17)  (  5, 16, 17)  (  3, 21,  6)  (  3, 21,  6)  (  3, 21,  6)
  1  0.4106E-05  0  0.2548E-05  0 -0.1716E-05  0 -0.1132E-05  0 -0.8556E-06
   (  3, 14,  4)  (  3, 14,  4)  (  4, 14,  4)  (  4, 14,  4)  (  4, 20,  3)
  0 -0.6639E-06  0  0.3812E-06  0 -0.2692E-06  0 -0.1714E-06  0 -0.1720E-06
   (  4, 14,  4)  (  4, 21,  1)  (  4, 20,  3)  (  4, 21,  2)  (  4, 21,  2)
  0 -0.1486E-06  0 -0.1152E-06  0 -0.8025E-07  0 -0.4165E-07  0  0.2080E-07
   (  4, 21,  2)  (  4, 21,  2)  (  4, 21,  2)  (  4, 21,  2)  (  4, 21,  3)
  0  0.1808E-07  0  0.1415E-07  1  0.1276E-07  0  0.1027E-07  0  0.6918E-08
   (  4, 21,  3)  (  4, 21,  3)  (  2, 21,  3)  (  2, 21,  3)  (  2, 21,  3)
  0 -0.4710E-08  1 -0.4486E-08
   (  3, 21,  3)  (  3, 21,  3)



 OUTPUT CONTROL FOR STRESS PERIOD    9   TIME STEP    3
    SAVE HEAD FOR ALL LAYERS
    SAVE DRAWDOWN FOR ALL LAYERS
    SAVE BUDGET
    PRINT BUDGET
 UBDSV1 SAVING "         STORAGE" ON UNIT   9 AT TIME STEP  3, STRESS PERIOD   9
 UBDSV2 SAVING "   CONSTANT HEAD" ON UNIT   9 AT TIME STEP  3, STRESS PERIOD   9
 UBDSV1 SAVING "FLOW RIGHT FACE " ON UNIT   9 AT TIME STEP  3, STRESS PERIOD   9
 UBDSV1 SAVING "FLOW FRONT FACE " ON UNIT   9 AT TIME STEP  3, STRESS PERIOD   9
 UBDSV1 SAVING "FLOW LOWER FACE " ON UNIT   9 AT TIME STEP  3, STRESS PERIOD   9
 UBDSV3 SAVING "        RECHARGE" ON UNIT   9 AT TIME STEP  3, STRESS PERIOD   9

 HEAD WILL BE SAVED ON UNIT   37 AT END OF TIME STEP    3, STRESS PERIOD    9

 DRAWDOWN WILL BE SAVED ON UNIT   38 AT END OF TIME STEP    3, STRESS PERIOD    9
1
  VOLUMETRIC BUDGET FOR ENTIRE MODEL AT END OF TIME STEP    3, STRESS PERIOD   9
  ------------------------------------------------------------------------------

     CUMULATIVE VOLUMES      L**3       RATES FOR THIS TIME STEP      L**3/T
     ------------------                 ------------------------

           IN:                                      IN:
           ---                                      ---
             STORAGE =        5322.3799               STORAGE =       2.5151E-03
       CONSTANT HEAD =        2085.7815         CONSTANT HEAD =       2.8094E-03
            RECHARGE =         118.3150              RECHARGE =       9.7813E-05

            TOTAL IN =        7526.4761              TOTAL IN =       5.4224E-03

          OUT:                                     OUT:
          ----                                     ----
             STORAGE =           0.0000               STORAGE =           0.0000
       CONSTANT HEAD =        7526.6079         CONSTANT HEAD =       5.4225E-03
            RECHARGE =           0.0000              RECHARGE =           0.0000

           TOTAL OUT =        7526.6079             TOTAL OUT =       5.4225E-03

            IN - OUT =          -0.1318              IN - OUT =      -1.1036E-07

 PERCENT DISCREPANCY =          -0.00     PERCENT DISCREPANCY =          -0.00






         TIME SUMMARY AT END OF TIME STEP    3 IN STRESS PERIOD    9
                    SECONDS     MINUTES      HOURS       DAYS        YEARS
                    -----------------------------------------------------------
   TIME STEP LENGTH  86400.      1440.0      24.000      1.0000     2.73785E-03
 STRESS PERIOD TIME 2.59200E+05  4320.0      72.000      3.0000     8.21355E-03
         TOTAL TIME 1.20960E+06  20160.      336.00      14.000     3.83299E-02
1
1
                            STRESS PERIOD NO.   10, LENGTH =   86400.00    
                            -----------------------------------------------

                              NUMBER OF TIME STEPS =     1

                               MULTIPLIER FOR DELT =     1.000

                            INITIAL TIME STEP SIZE =   86400.00    

 REUSING RECH FROM LAST STRESS PERIOD

 CHD NO.   LAYER   ROW   COL    START HEAD        END HEAD         IFACE           
 ----------------------------------------------------------------------------------
      1      4      1      1       109.5           109.4           0.000    
      2      5      1      1       109.5           109.4           0.000    
      3      4      1      2       109.5           109.4           0.000    
      4      5      1      2       109.5           109.4           0.000    
      5      4      1      3       109.5           109.4           0.000    
      6      5      1      3       109.5           109.4           0.000    
      7      4      1      4       109.5           109.4           0.000    
      8      5      1      4       109.5           109.4           0.000    
      9      4      1      5       109.5           109.4           0.000    
     10      5      1      5       109.5           109.4           0.000    
     11      4      1      6       109.5           109.4           0.000    
     12      5      1      6       109.5           109.4           0.000    
     13      4      1      7       109.5           109.4           0.000    
     14      5      1      7       109.5           109.4           0.000    
     15      4      1      8       109.5           109.4           0.000    
     16      5      1      8       109.5           109.4           0.000    
     17      4      1      9       109.5           109.4           0.000    
     18      5      1      9       109.5           109.4           0.000    
     19      4      1     10       109.5           109.4           0.000    
     20      5      1     10       109.5           109.4           0.000    
     21      4      1     11       109.5           109.4           0.000    
     22      5      1     11       109.5           109.4           0.000    
     23      4      1     12       109.5           109.4           0.000    
     24      5      1     12       109.5           109.4           0.000    
     25      4      1     13       109.5           109.4           0.000    
     26      5      1     13       109.5           109.4           0.000    
     27      4      1     14       109.5           109.4           0.000    
     28      5      1     14       109.5           109.4           0.000    
     29      4      1     15       109.5           109.4           0.000    
     30      5      1     15       109.5           109.4           0.000    
     31      4      1     16       109.5           109.4           0.000    
     32      5      1     16       109.5           109.4           0.000    
     33      4      1     17       109.5           109.4           0.000    
     34      5      1     17       109.5           109.4           0.000    
     35      4     17     17       109.1           109.1           0.000    
     36      5     17     17       109.1           109.1           0.000    
     37      4     18     17       109.1           109.1           0.000    
     38      5     18     17       109.1           109.1           0.000    
     39      4     18     16       109.1           109.1           0.000    
     40      5     18     16       109.1           109.1           0.000    
     41      4     19     16       109.1           109.1           0.000    
     42      5     19     16       109.1           109.1           0.000    
     43      4     19     15       109.1           109.1           0.000    
     44      5     19     15       109.1           109.1           0.000    
     45      4     20     15       109.1           109.1           0.000    
     46      5     20     15       109.1           109.1           0.000    
     47      4     20     14       109.1           109.1           0.000    
     48      5     20     14       109.1           109.1           0.000    
     49      4     20     13       109.1           109.1           0.000    
     50      5     20     13       109.1           109.1           0.000    
     51      4     20     12       109.1           109.1           0.000    
     52      5     20     12       109.1           109.1           0.000    
     53      4     20     11       109.1           109.1           0.000    
     54      5     20     11       109.1           109.1           0.000    
     55      4     21     11       109.1           109.1           0.000    
     56      5     21     11       109.1           109.1           0.000    
     57      4     21     10       109.1           109.1           0.000    
     58      5     21     10       109.1           109.1           0.000    
     59      4     21      9       109.1           109.1           0.000    
     60      5     21      9       109.1           109.1           0.000    
     61      4     21      8       109.1           109.1           0.000    
     62      5     21      8       109.1           109.1           0.000    
     63      4     21      7       109.1           109.1           0.000    
     64      5     21      7       109.1           109.1           0.000    
     65      4     21      6       109.1           109.1           0.000    
     66      5     21      6       109.1           109.1           0.000    
     67      4     21      5       109.1           109.1           0.000    
     68      5     21      5       109.1           109.1           0.000    
     69      4     22      5       109.1           109.1           0.000    
     70      5     22      5       109.1           109.1           0.000    
     71      4     22      4       109.1           109.1           0.000    
     72      5     22      4       109.1           109.1           0.000    
     73      4     22      3       109.1           109.1           0.000    
     74      5     22      3       109.1           109.1           0.000    
     75      4     22      2       109.1           109.1           0.000    
     76      5     22      2       109.1           109.1           0.000    
     77      4     22      1       109.1           109.1           0.000    
     78      5     22      1       109.1           109.1           0.000    


     78 TIME-VARIANT SPECIFIED-HEAD CELLS

 SOLVING FOR HEAD 

 CELL CONVERSIONS FOR ITER.=  2  LAYER=  2  STEP=  1  PERIOD=  10   (ROW,COL)
    DRY(  9,  5)   


     3 CALLS TO PCG ROUTINE FOR TIME STEP   1 IN STRESS PERIOD   10
    46 TOTAL ITERATIONS

 MAXIMUM HEAD CHANGE FOR EACH ITERATION (1 INDICATES THE FIRST INNER ITERATION):

    HEAD CHANGE    HEAD CHANGE    HEAD CHANGE    HEAD CHANGE    HEAD CHANGE 
   LAYER,ROW,COL  LAYER,ROW,COL  LAYER,ROW,COL  LAYER,ROW,COL  LAYER,ROW,COL
 ---------------------------------------------------------------------------
  1  0.8432E-01  0 -0.6353E-01  0 -0.3923E-01  0  0.4578E-01  0 -0.3731E-01
   (  5, 21,  2)  (  5, 20,  1)  (  5, 21,  2)  (  5, 20,  1)  (  5, 18,  1)
  0  0.2260E-01  0 -0.1037E-01  0 -0.5696E-02  0 -0.4348E-02  0  0.2586E-02
   (  5, 17,  1)  (  5, 16,  1)  (  5, 13,  3)  (  5, 18,  1)  (  5, 14,  3)
  0 -0.2158E-02  0 -0.1253E-02  0 -0.8078E-03  0 -0.6067E-03  0 -0.3651E-03
   (  5, 19,  1)  (  5,  8,  1)  (  5, 15,  3)  (  5, 19,  3)  (  5,  6,  2)
  0 -0.2180E-03  0 -0.1657E-03  0  0.1448E-03  0 -0.1277E-03  0  0.6816E-04
   (  5, 15,  5)  (  5, 18,  2)  (  5, 17,  2)  (  5, 16,  1)  (  5,  6,  1)
  0 -0.6205E-04  0  0.2767E-04  0  0.1365E-04  0 -0.1269E-04  0  0.6882E-05
   (  5,  6,  1)  (  5,  6,  1)  (  5, 19,  1)  (  5, 19,  1)  (  5, 18,  3)
  0 -0.4171E-05  0 -0.3569E-05  0  0.2123E-05  0 -0.1842E-05  0  0.1230E-05
   (  5,  8,  1)  (  5, 12,  6)  (  5, 11,  6)  (  5, 16,  3)  (  5, 15,  2)
  1 -0.1086E-03  0  0.8662E-04  0 -0.9518E-04  0  0.4025E-04  0 -0.4382E-04
   (  3,  9,  5)  (  5, 17,  1)  (  5, 17,  1)  (  5, 12,  1)  (  5, 13,  1)
  0 -0.2763E-04  0  0.2019E-04  0 -0.9646E-05  0 -0.5638E-05  0  0.4342E-05
   (  5, 19,  1)  (  5, 19,  1)  (  5, 20,  2)  (  5,  6,  1)  (  5,  6,  1)
  0  0.3189E-05  0  0.1930E-05  0 -0.1442E-05  0  0.1216E-05  0 -0.5070E-06
   (  5,  8,  1)  (  5, 14,  6)  (  5, 20,  1)  (  5, 20,  1)  (  5, 19,  1)
  1 -0.4628E-06
   (  5, 12,  4)

 MAXIMUM RESIDUAL FOR EACH ITERATION (1 INDICATES THE FIRST INNER ITERATION):

    RESIDUAL       RESIDUAL       RESIDUAL       RESIDUAL       RESIDUAL    
   LAYER,ROW,COL  LAYER,ROW,COL  LAYER,ROW,COL  LAYER,ROW,COL  LAYER,ROW,COL
 ---------------------------------------------------------------------------
  1 -0.1511E-02  0 -0.1148E-02  0 -0.7414E-03  0 -0.4371E-03  0 -0.2747E-03
   (  3, 17, 17)  (  3, 17, 17)  (  3, 17, 17)  (  3, 17, 17)  (  3, 20, 11)
  0 -0.1595E-03  0 -0.8805E-04  0 -0.7502E-04  0 -0.5792E-04  0 -0.4198E-04
   (  3, 20, 11)  (  3, 20, 11)  (  4, 16, 17)  (  4, 16, 17)  (  4, 16, 17)
  0 -0.2923E-04  0 -0.1909E-04  0 -0.1242E-04  0 -0.7984E-05  0  0.5530E-05
   (  4, 16, 17)  (  4, 16, 17)  (  4, 16, 17)  (  4, 16, 17)  (  3, 21,  6)
  0  0.3732E-05  0  0.2446E-05  0  0.1663E-05  0  0.1161E-05  0  0.7256E-06
   (  3, 21,  6)  (  3, 21,  6)  (  3, 21,  6)  (  3, 21,  5)  (  3, 21,  5)
  0  0.4503E-06  0  0.2553E-06  0  0.1744E-06  0  0.1346E-06  0  0.9977E-07
   (  3, 21,  5)  (  3, 21,  5)  (  3, 20, 11)  (  3, 20, 11)  (  3, 20, 11)
  0  0.6593E-07  0  0.4164E-07  0  0.2766E-07  0  0.1922E-07  0  0.1310E-07
   (  3, 20, 11)  (  4, 21,  4)  (  4, 21,  4)  (  4, 21,  4)  (  4, 21,  4)
  1  0.1067E-05  0  0.7171E-06  0  0.4598E-06  0  0.2478E-06  0 -0.1425E-06
   (  3,  9,  5)  (  3,  9,  5)  (  3,  9,  5)  (  3,  9,  5)  (  4,  9,  5)
  0 -0.9637E-07  0 -0.7612E-07  0 -0.5968E-07  0 -0.5501E-07  0 -0.4175E-07
   (  4,  9,  5)  (  4, 20,  2)  (  4, 20,  2)  (  4, 20,  2)  (  4, 20,  2)
  0  0.2615E-07  0  0.1731E-07  0  0.1236E-07  0  0.8698E-08  0 -0.4469E-08
   (  4,  8,  5)  (  4,  8,  5)  (  4,  8,  5)  (  4,  8,  5)  (  3,  9,  5)
  1 -0.4025E-08
   (  3,  8,  5)



 OUTPUT CONTROL FOR STRESS PERIOD   10   TIME STEP    1
    SAVE HEAD FOR ALL LAYERS
    SAVE DRAWDOWN FOR ALL LAYERS
    SAVE BUDGET
    PRINT BUDGET
 UBDSV1 SAVING "         STORAGE" ON UNIT   9 AT TIME STEP  1, STRESS PERIOD  10
 UBDSV2 SAVING "   CONSTANT HEAD" ON UNIT   9 AT TIME STEP  1, STRESS PERIOD  10
 UBDSV1 SAVING "FLOW RIGHT FACE " ON UNIT   9 AT TIME STEP  1, STRESS PERIOD  10
 UBDSV1 SAVING "FLOW FRONT FACE " ON UNIT   9 AT TIME STEP  1, STRESS PERIOD  10
 UBDSV1 SAVING "FLOW LOWER FACE " ON UNIT   9 AT TIME STEP  1, STRESS PERIOD  10
 UBDSV3 SAVING "        RECHARGE" ON UNIT   9 AT TIME STEP  1, STRESS PERIOD  10

 HEAD WILL BE SAVED ON UNIT   37 AT END OF TIME STEP    1, STRESS PERIOD   10

 DRAWDOWN WILL BE SAVED ON UNIT   38 AT END OF TIME STEP    1, STRESS PERIOD   10
1
  VOLUMETRIC BUDGET FOR ENTIRE MODEL AT END OF TIME STEP    1, STRESS PERIOD  10
  ------------------------------------------------------------------------------

     CUMULATIVE VOLUMES      L**3       RATES FOR THIS TIME STEP      L**3/T
     ------------------                 ------------------------

           IN:                                      IN:
           ---                                      ---
             STORAGE =        5386.6040               STORAGE =       7.4333E-04
       CONSTANT HEAD =        2330.2849         CONSTANT HEAD =       2.8299E-03
            RECHARGE =         126.7661              RECHARGE =       9.7813E-05

            TOTAL IN =        7843.6548              TOTAL IN =       3.6710E-03

          OUT:                                     OUT:
          ----                                     ----
             STORAGE =          11.2397               STORAGE =       1.3009E-04
       CONSTANT HEAD =        7832.5566         CONSTANT HEAD =       3.5411E-03
            RECHARGE =           0.0000              RECHARGE =           0.0000

           TOTAL OUT =        7843.7964             TOTAL OUT =       3.6712E-03

            IN - OUT =          -0.1416              IN - OUT =      -1.1409E-07

 PERCENT DISCREPANCY =          -0.00     PERCENT DISCREPANCY =          -0.00






         TIME SUMMARY AT END OF TIME STEP    1 IN STRESS PERIOD   10
                    SECONDS     MINUTES      HOURS       DAYS        YEARS
                    -----------------------------------------------------------
   TIME STEP LENGTH  86400.      1440.0      24.000      1.0000     2.73785E-03
 STRESS PERIOD TIME  86400.      1440.0      24.000      1.0000     2.73785E-03
         TOTAL TIME 1.29600E+06  21600.      360.00      15.000     4.10678E-02
1
1
                            STRESS PERIOD NO.   11, LENGTH =   86400.00    
                            -----------------------------------------------

                              NUMBER OF TIME STEPS =     1

                               MULTIPLIER FOR DELT =     1.000

                            INITIAL TIME STEP SIZE =   86400.00    

 REUSING RECH FROM LAST STRESS PERIOD

 CHD NO.   LAYER   ROW   COL    START HEAD        END HEAD         IFACE           
 ----------------------------------------------------------------------------------
      1      4      1      1       109.4           109.4           0.000    
      2      5      1      1       109.4           109.4           0.000    
      3      4      1      2       109.4           109.4           0.000    
      4      5      1      2       109.4           109.4           0.000    
      5      4      1      3       109.4           109.4           0.000    
      6      5      1      3       109.4           109.4           0.000    
      7      4      1      4       109.4           109.4           0.000    
      8      5      1      4       109.4           109.4           0.000    
      9      4      1      5       109.4           109.4           0.000    
     10      5      1      5       109.4           109.4           0.000    
     11      4      1      6       109.4           109.4           0.000    
     12      5      1      6       109.4           109.4           0.000    
     13      4      1      7       109.4           109.4           0.000    
     14      5      1      7       109.4           109.4           0.000    
     15      4      1      8       109.4           109.4           0.000    
     16      5      1      8       109.4           109.4           0.000    
     17      4      1      9       109.4           109.4           0.000    
     18      5      1      9       109.4           109.4           0.000    
     19      4      1     10       109.4           109.4           0.000    
     20      5      1     10       109.4           109.4           0.000    
     21      4      1     11       109.4           109.4           0.000    
     22      5      1     11       109.4           109.4           0.000    
     23      4      1     12       109.4           109.4           0.000    
     24      5      1     12       109.4           109.4           0.000    
     25      4      1     13       109.4           109.4           0.000    
     26      5      1     13       109.4           109.4           0.000    
     27      4      1     14       109.4           109.4           0.000    
     28      5      1     14       109.4           109.4           0.000    
     29      4      1     15       109.4           109.4           0.000    
     30      5      1     15       109.4           109.4           0.000    
     31      4      1     16       109.4           109.4           0.000    
     32      5      1     16       109.4           109.4           0.000    
     33      4      1     17       109.4           109.4           0.000    
     34      5      1     17       109.4           109.4           0.000    
     35      4     17     17       109.1           109.1           0.000    
     36      5     17     17       109.1           109.1           0.000    
     37      4     18     17       109.1           109.1           0.000    
     38      5     18     17       109.1           109.1           0.000    
     39      4     18     16       109.1           109.1           0.000    
     40      5     18     16       109.1           109.1           0.000    
     41      4     19     16       109.1           109.1           0.000    
     42      5     19     16       109.1           109.1           0.000    
     43      4     19     15       109.1           109.1           0.000    
     44      5     19     15       109.1           109.1           0.000    
     45      4     20     15       109.1           109.1           0.000    
     46      5     20     15       109.1           109.1           0.000    
     47      4     20     14       109.1           109.1           0.000    
     48      5     20     14       109.1           109.1           0.000    
     49      4     20     13       109.1           109.1           0.000    
     50      5     20     13       109.1           109.1           0.000    
     51      4     20     12       109.1           109.1           0.000    
     52      5     20     12       109.1           109.1           0.000    
     53      4     20     11       109.1           109.1           0.000    
     54      5     20     11       109.1           109.1           0.000    
     55      4     21     11       109.1           109.1           0.000    
     56      5     21     11       109.1           109.1           0.000    
     57      4     21     10       109.1           109.1           0.000    
     58      5     21     10       109.1           109.1           0.000    
     59      4     21      9       109.1           109.1           0.000    
     60      5     21      9       109.1           109.1           0.000    
     61      4     21      8       109.1           109.1           0.000    
     62      5     21      8       109.1           109.1           0.000    
     63      4     21      7       109.1           109.1           0.000    
     64      5     21      7       109.1           109.1           0.000    
     65      4     21      6       109.1           109.1           0.000    
     66      5     21      6       109.1           109.1           0.000    
     67      4     21      5       109.1           109.1           0.000    
     68      5     21      5       109.1           109.1           0.000    
     69      4     22      5       109.1           109.1           0.000    
     70      5     22      5       109.1           109.1           0.000    
     71      4     22      4       109.1           109.1           0.000    
     72      5     22      4       109.1           109.1           0.000    
     73      4     22      3       109.1           109.1           0.000    
     74      5     22      3       109.1           109.1           0.000    
     75      4     22      2       109.1           109.1           0.000    
     76      5     22      2       109.1           109.1           0.000    
     77      4     22      1       109.1           109.1           0.000    
     78      5     22      1       109.1           109.1           0.000    


     78 TIME-VARIANT SPECIFIED-HEAD CELLS

 SOLVING FOR HEAD 

 CELL CONVERSIONS FOR ITER.=  2  LAYER=  2  STEP=  1  PERIOD=  11   (ROW,COL)
    DRY( 15,  4)   


     3 CALLS TO PCG ROUTINE FOR TIME STEP   1 IN STRESS PERIOD   11
    42 TOTAL ITERATIONS

 MAXIMUM HEAD CHANGE FOR EACH ITERATION (1 INDICATES THE FIRST INNER ITERATION):

    HEAD CHANGE    HEAD CHANGE    HEAD CHANGE    HEAD CHANGE    HEAD CHANGE 
   LAYER,ROW,COL  LAYER,ROW,COL  LAYER,ROW,COL  LAYER,ROW,COL  LAYER,ROW,COL
 ---------------------------------------------------------------------------
  1 -0.4791E-01  0  0.3921E-01  0 -0.3079E-01  0  0.2006E-01  0 -0.1417E-01
   (  5, 21,  2)  (  5, 20,  1)  (  5, 19,  1)  (  5, 17,  1)  (  5, 16,  1)
  0  0.7941E-02  0 -0.6116E-02  0 -0.3244E-02  0  0.1859E-02  0 -0.1039E-02
   (  5, 14,  1)  (  5, 18,  1)  (  5, 19,  1)  (  5, 18,  1)  (  5, 14,  3)
  0  0.9544E-03  0 -0.6601E-03  0  0.4348E-03  0 -0.2177E-03  0  0.1327E-03
   (  5, 19,  1)  (  5, 16,  3)  (  5, 15,  3)  (  5, 14,  3)  (  5, 14,  5)
  0  0.1064E-03  0 -0.7294E-04  0  0.3577E-04  0 -0.4018E-04  0  0.3380E-04
   (  5, 17,  2)  (  5, 16,  2)  (  5, 13,  5)  (  5, 15,  1)  (  5, 17,  1)
  0 -0.2477E-04  0 -0.1516E-04  0  0.8231E-05  0 -0.5221E-05  0 -0.4200E-05
   (  5, 18,  2)  (  5,  6,  1)  (  5,  6,  1)  (  5,  6,  1)  (  5, 18,  1)
  0  0.3325E-05  0 -0.1300E-05  0  0.9875E-06  1 -0.6304E-04  0 -0.5306E-04
   (  5, 19,  1)  (  5, 20,  2)  (  5, 15,  4)  (  5, 16,  5)  (  5, 13,  1)
  0  0.4912E-04  0 -0.3053E-04  0  0.2274E-04  0 -0.1767E-04  0  0.1446E-04
   (  5, 17,  1)  (  5, 16,  1)  (  5, 19,  3)  (  5, 18,  2)  (  5, 18,  1)
  0 -0.1070E-04  0  0.5584E-05  0  0.2881E-05  0 -0.2462E-05  0  0.1512E-05
   (  5, 20,  1)  (  5, 19,  2)  (  5, 16,  1)  (  5, 18,  2)  (  5,  7,  1)
  0 -0.9205E-06  1  0.5663E-06
   (  5,  7,  1)  (  5,  7,  1)

 MAXIMUM RESIDUAL FOR EACH ITERATION (1 INDICATES THE FIRST INNER ITERATION):

    RESIDUAL       RESIDUAL       RESIDUAL       RESIDUAL       RESIDUAL    
   LAYER,ROW,COL  LAYER,ROW,COL  LAYER,ROW,COL  LAYER,ROW,COL  LAYER,ROW,COL
 ---------------------------------------------------------------------------
  1  0.6839E-03  0  0.5106E-03  0  0.3386E-03  0  0.2116E-03  0  0.1231E-03
   (  3, 17, 17)  (  3, 17, 17)  (  3, 17, 17)  (  3, 17, 17)  (  3, 17, 17)
  0  0.6932E-04  0  0.3969E-04  0  0.3291E-04  0 -0.2511E-04  0  0.1736E-04
   (  3, 20, 11)  (  4, 16, 17)  (  4, 16, 17)  (  4, 21,  2)  (  4, 16, 17)
  0  0.1227E-04  0  0.8289E-05  0  0.5545E-05  0 -0.3769E-05  0 -0.2727E-05
   (  4, 16, 17)  (  4, 16, 17)  (  4, 16, 17)  (  3, 21,  6)  (  3, 21,  6)
  0 -0.1830E-05  0 -0.1193E-05  0 -0.7011E-06  0 -0.3932E-06  0 -0.2513E-06
   (  3, 21,  6)  (  3, 21,  6)  (  3, 21,  6)  (  3, 21,  6)  (  3, 21,  6)
  0 -0.1480E-06  0  0.9566E-07  0  0.6550E-07  0  0.4395E-07  0  0.3043E-07
   (  3, 21,  5)  (  5, 15, 17)  (  5, 15, 17)  (  5, 15, 17)  (  5, 15, 17)
  0  0.2106E-07  0  0.1380E-07  0  0.1067E-07  1 -0.1046E-05  0 -0.6502E-06
   (  5, 16, 17)  (  3, 21,  6)  (  3, 21,  6)  (  3, 20,  3)  (  3, 20,  3)
  0  0.4168E-06  0  0.3175E-06  0  0.1815E-06  0  0.1219E-06  0  0.7727E-07
   (  4, 20,  3)  (  4, 20,  3)  (  4, 20,  3)  (  4, 20,  3)  (  4, 20,  3)
  0  0.5766E-07  0 -0.5007E-07  0 -0.4241E-07  0 -0.2760E-07  0 -0.1630E-07
   (  4, 20,  3)  (  4, 19,  3)  (  4, 19,  3)  (  4, 19,  3)  (  4, 20,  2)
  0 -0.1175E-07  1 -0.9482E-08
   (  4, 20,  3)  (  4, 20,  3)



 OUTPUT CONTROL FOR STRESS PERIOD   11   TIME STEP    1
    SAVE HEAD FOR ALL LAYERS
    SAVE DRAWDOWN FOR ALL LAYERS
    SAVE BUDGET
    PRINT BUDGET
 UBDSV1 SAVING "         STORAGE" ON UNIT   9 AT TIME STEP  1, STRESS PERIOD  11
 UBDSV2 SAVING "   CONSTANT HEAD" ON UNIT   9 AT TIME STEP  1, STRESS PERIOD  11
 UBDSV1 SAVING "FLOW RIGHT FACE " ON UNIT   9 AT TIME STEP  1, STRESS PERIOD  11
 UBDSV1 SAVING "FLOW FRONT FACE " ON UNIT   9 AT TIME STEP  1, STRESS PERIOD  11
 UBDSV1 SAVING "FLOW LOWER FACE " ON UNIT   9 AT TIME STEP  1, STRESS PERIOD  11
 UBDSV3 SAVING "        RECHARGE" ON UNIT   9 AT TIME STEP  1, STRESS PERIOD  11

 HEAD WILL BE SAVED ON UNIT   37 AT END OF TIME STEP    1, STRESS PERIOD   11

 DRAWDOWN WILL BE SAVED ON UNIT   38 AT END OF TIME STEP    1, STRESS PERIOD   11
1
  VOLUMETRIC BUDGET FOR ENTIRE MODEL AT END OF TIME STEP    1, STRESS PERIOD  11
  ------------------------------------------------------------------------------

     CUMULATIVE VOLUMES      L**3       RATES FOR THIS TIME STEP      L**3/T
     ------------------                 ------------------------

           IN:                                      IN:
           ---                                      ---
             STORAGE =        5448.1880               STORAGE =       7.1278E-04
       CONSTANT HEAD =        2583.9648         CONSTANT HEAD =       2.9361E-03
            RECHARGE =         135.2171              RECHARGE =       9.7813E-05

            TOTAL IN =        8167.3701              TOTAL IN =       3.7467E-03

          OUT:                                     OUT:
          ----                                     ----
             STORAGE =          11.2397               STORAGE =           0.0000
       CONSTANT HEAD =        8156.2822         CONSTANT HEAD =       3.7468E-03
            RECHARGE =           0.0000              RECHARGE =           0.0000

           TOTAL OUT =        8167.5220             TOTAL OUT =       3.7468E-03

            IN - OUT =          -0.1519              IN - OUT =      -1.2037E-07

 PERCENT DISCREPANCY =          -0.00     PERCENT DISCREPANCY =          -0.00






         TIME SUMMARY AT END OF TIME STEP    1 IN STRESS PERIOD   11
                    SECONDS     MINUTES      HOURS       DAYS        YEARS
                    -----------------------------------------------------------
   TIME STEP LENGTH  86400.      1440.0      24.000      1.0000     2.73785E-03
 STRESS PERIOD TIME  86400.      1440.0      24.000      1.0000     2.73785E-03
         TOTAL TIME 1.38240E+06  23040.      384.00      16.000     4.38056E-02
1
1
                            STRESS PERIOD NO.   12, LENGTH =   86400.00    
                            -----------------------------------------------

                              NUMBER OF TIME STEPS =     1

                               MULTIPLIER FOR DELT =     1.000

                            INITIAL TIME STEP SIZE =   86400.00    

 REUSING RECH FROM LAST STRESS PERIOD

 CHD NO.   LAYER   ROW   COL    START HEAD        END HEAD         IFACE           
 ----------------------------------------------------------------------------------
      1      4      1      1       109.4           109.4           0.000    
      2      5      1      1       109.4           109.4           0.000    
      3      4      1      2       109.4           109.4           0.000    
      4      5      1      2       109.4           109.4           0.000    
      5      4      1      3       109.4           109.4           0.000    
      6      5      1      3       109.4           109.4           0.000    
      7      4      1      4       109.4           109.4           0.000    
      8      5      1      4       109.4           109.4           0.000    
      9      4      1      5       109.4           109.4           0.000    
     10      5      1      5       109.4           109.4           0.000    
     11      4      1      6       109.4           109.4           0.000    
     12      5      1      6       109.4           109.4           0.000    
     13      4      1      7       109.4           109.4           0.000    
     14      5      1      7       109.4           109.4           0.000    
     15      4      1      8       109.4           109.4           0.000    
     16      5      1      8       109.4           109.4           0.000    
     17      4      1      9       109.4           109.4           0.000    
     18      5      1      9       109.4           109.4           0.000    
     19      4      1     10       109.4           109.4           0.000    
     20      5      1     10       109.4           109.4           0.000    
     21      4      1     11       109.4           109.4           0.000    
     22      5      1     11       109.4           109.4           0.000    
     23      4      1     12       109.4           109.4           0.000    
     24      5      1     12       109.4           109.4           0.000    
     25      4      1     13       109.4           109.4           0.000    
     26      5      1     13       109.4           109.4           0.000    
     27      4      1     14       109.4           109.4           0.000    
     28      5      1     14       109.4           109.4           0.000    
     29      4      1     15       109.4           109.4           0.000    
     30      5      1     15       109.4           109.4           0.000    
     31      4      1     16       109.4           109.4           0.000    
     32      5      1     16       109.4           109.4           0.000    
     33      4      1     17       109.4           109.4           0.000    
     34      5      1     17       109.4           109.4           0.000    
     35      4     17     17       109.1           109.1           0.000    
     36      5     17     17       109.1           109.1           0.000    
     37      4     18     17       109.1           109.1           0.000    
     38      5     18     17       109.1           109.1           0.000    
     39      4     18     16       109.1           109.1           0.000    
     40      5     18     16       109.1           109.1           0.000    
     41      4     19     16       109.1           109.1           0.000    
     42      5     19     16       109.1           109.1           0.000    
     43      4     19     15       109.1           109.1           0.000    
     44      5     19     15       109.1           109.1           0.000    
     45      4     20     15       109.1           109.1           0.000    
     46      5     20     15       109.1           109.1           0.000    
     47      4     20     14       109.1           109.1           0.000    
     48      5     20     14       109.1           109.1           0.000    
     49      4     20     13       109.1           109.1           0.000    
     50      5     20     13       109.1           109.1           0.000    
     51      4     20     12       109.1           109.1           0.000    
     52      5     20     12       109.1           109.1           0.000    
     53      4     20     11       109.1           109.1           0.000    
     54      5     20     11       109.1           109.1           0.000    
     55      4     21     11       109.1           109.1           0.000    
     56      5     21     11       109.1           109.1           0.000    
     57      4     21     10       109.1           109.1           0.000    
     58      5     21     10       109.1           109.1           0.000    
     59      4     21      9       109.1           109.1           0.000    
     60      5     21      9       109.1           109.1           0.000    
     61      4     21      8       109.1           109.1           0.000    
     62      5     21      8       109.1           109.1           0.000    
     63      4     21      7       109.1           109.1           0.000    
     64      5     21      7       109.1           109.1           0.000    
     65      4     21      6       109.1           109.1           0.000    
     66      5     21      6       109.1           109.1           0.000    
     67      4     21      5       109.1           109.1           0.000    
     68      5     21      5       109.1           109.1           0.000    
     69      4     22      5       109.1           109.1           0.000    
     70      5     22      5       109.1           109.1           0.000    
     71      4     22      4       109.1           109.1           0.000    
     72      5     22      4       109.1           109.1           0.000    
     73      4     22      3       109.1           109.1           0.000    
     74      5     22      3       109.1           109.1           0.000    
     75      4     22      2       109.1           109.1           0.000    
     76      5     22      2       109.1           109.1           0.000    
     77      4     22      1       109.1           109.1           0.000    
     78      5     22      1       109.1           109.1           0.000    


     78 TIME-VARIANT SPECIFIED-HEAD CELLS

 SOLVING FOR HEAD 

 CELL CONVERSIONS FOR ITER.=  2  LAYER=  2  STEP=  1  PERIOD=  12   (ROW,COL)
    DRY( 10,  1)   DRY( 10,  5)   


     3 CALLS TO PCG ROUTINE FOR TIME STEP   1 IN STRESS PERIOD   12
    40 TOTAL ITERATIONS

 MAXIMUM HEAD CHANGE FOR EACH ITERATION (1 INDICATES THE FIRST INNER ITERATION):

    HEAD CHANGE    HEAD CHANGE    HEAD CHANGE    HEAD CHANGE    HEAD CHANGE 
   LAYER,ROW,COL  LAYER,ROW,COL  LAYER,ROW,COL  LAYER,ROW,COL  LAYER,ROW,COL
 ---------------------------------------------------------------------------
  1 -0.1383E-01  0  0.9706E-02  0 -0.7084E-02  0  0.7627E-02  0 -0.5206E-02
   (  5,  2, 17)  (  5, 16,  1)  (  5, 21,  2)  (  5, 20,  1)  (  5, 19,  1)
  0  0.2095E-02  0 -0.1766E-02  0 -0.1157E-02  0  0.6608E-03  0 -0.5922E-03
   (  5, 17,  1)  (  5, 16,  1)  (  5, 14,  3)  (  5, 20,  1)  (  5, 11,  2)
  0 -0.2974E-03  0 -0.1975E-03  0 -0.1052E-03  0 -0.1010E-03  0 -0.4832E-04
   (  5, 13,  3)  (  5,  8,  1)  (  5, 13,  5)  (  5, 16,  3)  (  5,  6,  2)
  0 -0.3526E-04  0  0.2305E-04  0 -0.2512E-04  0  0.1604E-04  0 -0.8675E-05
   (  5,  7,  1)  (  5, 17,  1)  (  5, 17,  1)  (  5, 17,  2)  (  5, 16,  2)
  0 -0.8727E-05  0  0.4788E-05  0 -0.3188E-05  0 -0.2016E-05  0 -0.1704E-05
   (  5,  6,  1)  (  5,  6,  1)  (  5,  6,  1)  (  5, 18,  2)  (  5, 13,  1)
  0 -0.8422E-06  1 -0.6658E-04  0 -0.5384E-04  0 -0.4748E-04  0  0.2920E-04
   (  5, 19,  1)  (  5, 10,  1)  (  3, 10,  1)  (  5, 14,  1)  (  5, 16,  1)
  0 -0.2473E-04  0  0.1688E-04  0 -0.1181E-04  0  0.8403E-05  0 -0.4725E-05
   (  5, 17,  1)  (  5, 18,  1)  (  5, 19,  1)  (  5, 20,  1)  (  5, 20,  1)
  0  0.2895E-05  0  0.1137E-05  0  0.1266E-05  0 -0.6608E-06  1 -0.5147E-06
   (  5, 14,  3)  (  5, 12,  1)  (  5, 15,  5)  (  5, 13,  4)  (  5,  6,  1)

 MAXIMUM RESIDUAL FOR EACH ITERATION (1 INDICATES THE FIRST INNER ITERATION):

    RESIDUAL       RESIDUAL       RESIDUAL       RESIDUAL       RESIDUAL    
   LAYER,ROW,COL  LAYER,ROW,COL  LAYER,ROW,COL  LAYER,ROW,COL  LAYER,ROW,COL
 ---------------------------------------------------------------------------
  1  0.4534E-04  0 -0.3947E-04  0 -0.3077E-04  0 -0.2029E-04  0 -0.1362E-04
   (  4,  2, 17)  (  5, 15, 17)  (  5, 15, 17)  (  5, 15, 17)  (  5, 15, 17)
  0 -0.9711E-05  0 -0.7821E-05  0 -0.6619E-05  0 -0.4718E-05  0 -0.3614E-05
   (  5, 16, 17)  (  5,  5, 17)  (  5,  3, 17)  (  5,  3, 17)  (  5,  2, 17)
  0 -0.2491E-05  0 -0.1489E-05  0 -0.1174E-05  0 -0.7711E-06  0  0.5619E-06
   (  5,  2, 17)  (  5,  2, 17)  (  4, 21,  2)  (  4, 21,  2)  (  5, 16, 17)
  0  0.3784E-06  0  0.2588E-06  0  0.2031E-06  0  0.1449E-06  0  0.9193E-07
   (  5, 16, 17)  (  5, 16, 17)  (  5, 16, 17)  (  5, 16, 17)  (  5, 16, 17)
  0  0.5431E-07  0 -0.2883E-07  0 -0.2257E-07  0 -0.1795E-07  0 -0.1535E-07
   (  5, 16, 17)  (  3, 17, 17)  (  3, 17, 17)  (  3, 17, 17)  (  3, 17, 17)
  0 -0.1145E-07  1  0.6880E-06  0  0.4432E-06  0  0.2985E-06  0  0.1840E-06
   (  3, 17, 17)  (  3, 10,  1)  (  3, 10,  1)  (  3, 10,  1)  (  3, 10,  1)
  0  0.1072E-06  0  0.6064E-07  0 -0.4267E-07  0 -0.4036E-07  0 -0.3225E-07
   (  3, 10,  1)  (  3, 10,  1)  (  4, 10,  1)  (  4, 10,  1)  (  4, 10,  1)
  0 -0.1863E-07  0 -0.1043E-07  0 -0.6768E-08  0  0.6121E-08  1  0.5273E-08
   (  4, 10,  1)  (  4, 10,  1)  (  4, 10,  1)  (  4,  9,  1)  (  4,  9,  1)



 OUTPUT CONTROL FOR STRESS PERIOD   12   TIME STEP    1
    SAVE HEAD FOR ALL LAYERS
    SAVE DRAWDOWN FOR ALL LAYERS
    SAVE BUDGET
    PRINT BUDGET
 UBDSV1 SAVING "         STORAGE" ON UNIT   9 AT TIME STEP  1, STRESS PERIOD  12
 UBDSV2 SAVING "   CONSTANT HEAD" ON UNIT   9 AT TIME STEP  1, STRESS PERIOD  12
 UBDSV1 SAVING "FLOW RIGHT FACE " ON UNIT   9 AT TIME STEP  1, STRESS PERIOD  12
 UBDSV1 SAVING "FLOW FRONT FACE " ON UNIT   9 AT TIME STEP  1, STRESS PERIOD  12
 UBDSV1 SAVING "FLOW LOWER FACE " ON UNIT   9 AT TIME STEP  1, STRESS PERIOD  12
 UBDSV3 SAVING "        RECHARGE" ON UNIT   9 AT TIME STEP  1, STRESS PERIOD  12

 HEAD WILL BE SAVED ON UNIT   37 AT END OF TIME STEP    1, STRESS PERIOD   12

 DRAWDOWN WILL BE SAVED ON UNIT   38 AT END OF TIME STEP    1, STRESS PERIOD   12
1
  VOLUMETRIC BUDGET FOR ENTIRE MODEL AT END OF TIME STEP    1, STRESS PERIOD  12
  ------------------------------------------------------------------------------

     CUMULATIVE VOLUMES      L**3       RATES FOR THIS TIME STEP      L**3/T
     ------------------                 ------------------------

           IN:                                      IN:
           ---                                      ---
             STORAGE =        5487.2354               STORAGE =       4.5194E-04
       CONSTANT HEAD =        2824.2056         CONSTANT HEAD =       2.7806E-03
            RECHARGE =         143.6682              RECHARGE =       9.7813E-05

            TOTAL IN =        8455.1094              TOTAL IN =       3.3303E-03

          OUT:                                     OUT:
          ----                                     ----
             STORAGE =          11.3455               STORAGE =       1.2241E-06
       CONSTANT HEAD =        8443.9248         CONSTANT HEAD =       3.3292E-03
            RECHARGE =           0.0000              RECHARGE =           0.0000

           TOTAL OUT =        8455.2705             TOTAL OUT =       3.3304E-03

            IN - OUT =          -0.1611              IN - OUT =      -1.1316E-07

 PERCENT DISCREPANCY =          -0.00     PERCENT DISCREPANCY =          -0.00






         TIME SUMMARY AT END OF TIME STEP    1 IN STRESS PERIOD   12
                    SECONDS     MINUTES      HOURS       DAYS        YEARS
                    -----------------------------------------------------------
   TIME STEP LENGTH  86400.      1440.0      24.000      1.0000     2.73785E-03
 STRESS PERIOD TIME  86400.      1440.0      24.000      1.0000     2.73785E-03
         TOTAL TIME 1.46880E+06  24480.      408.00      17.000     4.65435E-02
1
1
                            STRESS PERIOD NO.   13, LENGTH =   86400.00    
                            -----------------------------------------------

                              NUMBER OF TIME STEPS =     1

                               MULTIPLIER FOR DELT =     1.000

                            INITIAL TIME STEP SIZE =   86400.00    

 REUSING RECH FROM LAST STRESS PERIOD

 CHD NO.   LAYER   ROW   COL    START HEAD        END HEAD         IFACE           
 ----------------------------------------------------------------------------------
      1      4      1      1       109.4           109.4           0.000    
      2      5      1      1       109.4           109.4           0.000    
      3      4      1      2       109.4           109.4           0.000    
      4      5      1      2       109.4           109.4           0.000    
      5      4      1      3       109.4           109.4           0.000    
      6      5      1      3       109.4           109.4           0.000    
      7      4      1      4       109.4           109.4           0.000    
      8      5      1      4       109.4           109.4           0.000    
      9      4      1      5       109.4           109.4           0.000    
     10      5      1      5       109.4           109.4           0.000    
     11      4      1      6       109.4           109.4           0.000    
     12      5      1      6       109.4           109.4           0.000    
     13      4      1      7       109.4           109.4           0.000    
     14      5      1      7       109.4           109.4           0.000    
     15      4      1      8       109.4           109.4           0.000    
     16      5      1      8       109.4           109.4           0.000    
     17      4      1      9       109.4           109.4           0.000    
     18      5      1      9       109.4           109.4           0.000    
     19      4      1     10       109.4           109.4           0.000    
     20      5      1     10       109.4           109.4           0.000    
     21      4      1     11       109.4           109.4           0.000    
     22      5      1     11       109.4           109.4           0.000    
     23      4      1     12       109.4           109.4           0.000    
     24      5      1     12       109.4           109.4           0.000    
     25      4      1     13       109.4           109.4           0.000    
     26      5      1     13       109.4           109.4           0.000    
     27      4      1     14       109.4           109.4           0.000    
     28      5      1     14       109.4           109.4           0.000    
     29      4      1     15       109.4           109.4           0.000    
     30      5      1     15       109.4           109.4           0.000    
     31      4      1     16       109.4           109.4           0.000    
     32      5      1     16       109.4           109.4           0.000    
     33      4      1     17       109.4           109.4           0.000    
     34      5      1     17       109.4           109.4           0.000    
     35      4     17     17       109.1           109.1           0.000    
     36      5     17     17       109.1           109.1           0.000    
     37      4     18     17       109.1           109.1           0.000    
     38      5     18     17       109.1           109.1           0.000    
     39      4     18     16       109.1           109.1           0.000    
     40      5     18     16       109.1           109.1           0.000    
     41      4     19     16       109.1           109.1           0.000    
     42      5     19     16       109.1           109.1           0.000    
     43      4     19     15       109.1           109.1           0.000    
     44      5     19     15       109.1           109.1           0.000    
     45      4     20     15       109.1           109.1           0.000    
     46      5     20     15       109.1           109.1           0.000    
     47      4     20     14       109.1           109.1           0.000    
     48      5     20     14       109.1           109.1           0.000    
     49      4     20     13       109.1           109.1           0.000    
     50      5     20     13       109.1           109.1           0.000    
     51      4     20     12       109.1           109.1           0.000    
     52      5     20     12       109.1           109.1           0.000    
     53      4     20     11       109.1           109.1           0.000    
     54      5     20     11       109.1           109.1           0.000    
     55      4     21     11       109.1           109.1           0.000    
     56      5     21     11       109.1           109.1           0.000    
     57      4     21     10       109.1           109.1           0.000    
     58      5     21     10       109.1           109.1           0.000    
     59      4     21      9       109.1           109.1           0.000    
     60      5     21      9       109.1           109.1           0.000    
     61      4     21      8       109.1           109.1           0.000    
     62      5     21      8       109.1           109.1           0.000    
     63      4     21      7       109.1           109.1           0.000    
     64      5     21      7       109.1           109.1           0.000    
     65      4     21      6       109.1           109.1           0.000    
     66      5     21      6       109.1           109.1           0.000    
     67      4     21      5       109.1           109.1           0.000    
     68      5     21      5       109.1           109.1           0.000    
     69      4     22      5       109.1           109.1           0.000    
     70      5     22      5       109.1           109.1           0.000    
     71      4     22      4       109.1           109.1           0.000    
     72      5     22      4       109.1           109.1           0.000    
     73      4     22      3       109.1           109.1           0.000    
     74      5     22      3       109.1           109.1           0.000    
     75      4     22      2       109.1           109.1           0.000    
     76      5     22      2       109.1           109.1           0.000    
     77      4     22      1       109.1           109.1           0.000    
     78      5     22      1       109.1           109.1           0.000    


     78 TIME-VARIANT SPECIFIED-HEAD CELLS

 SOLVING FOR HEAD 

 CELL CONVERSIONS FOR ITER.=  2  LAYER=  2  STEP=  1  PERIOD=  13   (ROW,COL)
    DRY(  9,  3)   


     3 CALLS TO PCG ROUTINE FOR TIME STEP   1 IN STRESS PERIOD   13
    41 TOTAL ITERATIONS

 MAXIMUM HEAD CHANGE FOR EACH ITERATION (1 INDICATES THE FIRST INNER ITERATION):

    HEAD CHANGE    HEAD CHANGE    HEAD CHANGE    HEAD CHANGE    HEAD CHANGE 
   LAYER,ROW,COL  LAYER,ROW,COL  LAYER,ROW,COL  LAYER,ROW,COL  LAYER,ROW,COL
 ---------------------------------------------------------------------------
  1 -0.2866E-01  0  0.2344E-01  0 -0.1796E-01  0  0.1247E-01  0 -0.8094E-02
   (  5, 21,  2)  (  5, 20,  1)  (  5, 19,  1)  (  5, 17,  1)  (  5, 16,  1)
  0  0.4636E-02  0 -0.3597E-02  0 -0.1789E-02  0  0.1054E-02  0 -0.6354E-03
   (  5, 14,  1)  (  5, 18,  1)  (  5, 19,  1)  (  5, 18,  1)  (  5, 14,  3)
  0  0.5265E-03  0 -0.4075E-03  0  0.2712E-03  0 -0.1243E-03  0 -0.7594E-04
   (  5, 19,  1)  (  5, 16,  3)  (  5, 15,  3)  (  5, 15,  4)  (  5,  7,  1)
  0  0.5665E-04  0 -0.4099E-04  0 -0.2273E-04  0 -0.2408E-04  0 -0.2069E-04
   (  5, 17,  2)  (  5, 16,  2)  (  5, 17,  2)  (  5,  6,  1)  (  5, 15,  1)
  0  0.1064E-04  0 -0.9119E-05  0 -0.4947E-05  0 -0.2850E-05  0 -0.1795E-05
   (  5, 17,  1)  (  5,  6,  1)  (  5, 14,  4)  (  5,  6,  1)  (  5, 15,  4)
  0  0.1203E-05  0 -0.7108E-06  1 -0.4748E-04  0 -0.5063E-04  0  0.2783E-04
   (  5, 12,  6)  (  5, 11,  6)  (  3,  9,  3)  (  3,  9,  3)  (  5, 14,  1)
  0 -0.1930E-04  0  0.1918E-04  0 -0.8879E-05  0 -0.4191E-05  0  0.3109E-05
   (  5, 16,  1)  (  5, 18,  1)  (  5, 18,  1)  (  5, 11,  1)  (  5, 12,  1)
  0  0.2102E-05  0  0.2047E-05  0 -0.2116E-05  0  0.1360E-05  0  0.4496E-06
   (  5, 15,  1)  (  5, 19,  1)  (  5, 20,  1)  (  5, 20,  1)  (  5,  6,  1)
  1 -0.4217E-06
   (  5,  6,  1)

 MAXIMUM RESIDUAL FOR EACH ITERATION (1 INDICATES THE FIRST INNER ITERATION):

    RESIDUAL       RESIDUAL       RESIDUAL       RESIDUAL       RESIDUAL    
   LAYER,ROW,COL  LAYER,ROW,COL  LAYER,ROW,COL  LAYER,ROW,COL  LAYER,ROW,COL
 ---------------------------------------------------------------------------
  1  0.3912E-03  0  0.2949E-03  0  0.1951E-03  0  0.1222E-03  0  0.7255E-04
   (  3, 17, 17)  (  3, 17, 17)  (  3, 17, 17)  (  3, 17, 17)  (  3, 17, 17)
  0  0.4040E-04  0  0.2275E-04  0  0.1899E-04  0 -0.1475E-04  0 -0.1001E-04
   (  3, 20, 11)  (  4, 16, 17)  (  4, 16, 17)  (  4, 21,  2)  (  4, 21,  2)
  0  0.7025E-05  0  0.4676E-05  0  0.3082E-05  0 -0.2212E-05  0 -0.1610E-05
   (  4, 16, 17)  (  4, 16, 17)  (  4, 16, 17)  (  3, 21,  6)  (  3, 21,  6)
  0 -0.1095E-05  0 -0.7196E-06  0 -0.4230E-06  0 -0.2403E-06  0 -0.1538E-06
   (  3, 21,  6)  (  3, 21,  6)  (  3, 21,  6)  (  3, 21,  6)  (  3, 21,  6)
  0 -0.8819E-07  0  0.5879E-07  0  0.3977E-07  0  0.2606E-07  0  0.1561E-07
   (  3, 21,  5)  (  5, 15, 17)  (  5, 15, 17)  (  5, 15, 17)  (  5, 16, 17)
  0  0.1000E-07  0  0.7628E-08  1  0.5217E-06  0  0.2996E-06  0 -0.2198E-06
   (  5, 16, 17)  (  3, 21,  6)  (  3,  9,  3)  (  3,  9,  3)  (  4,  9,  3)
  0 -0.1221E-06  0 -0.6890E-07  0 -0.4562E-07  0 -0.2661E-07  0 -0.2631E-07
   (  4,  9,  3)  (  4,  9,  3)  (  4,  9,  3)  (  4,  9,  3)  (  4,  9,  3)
  0 -0.1694E-07  0  0.1273E-07  0  0.1220E-07  0  0.8228E-08  0  0.5220E-08
   (  4,  9,  3)  (  4,  8,  3)  (  4,  8,  3)  (  4,  8,  3)  (  4,  9,  2)
  1  0.4455E-08
   (  4,  8,  3)



 OUTPUT CONTROL FOR STRESS PERIOD   13   TIME STEP    1
    SAVE HEAD FOR ALL LAYERS
    SAVE DRAWDOWN FOR ALL LAYERS
    SAVE BUDGET
    PRINT BUDGET
 UBDSV1 SAVING "         STORAGE" ON UNIT   9 AT TIME STEP  1, STRESS PERIOD  13
 UBDSV2 SAVING "   CONSTANT HEAD" ON UNIT   9 AT TIME STEP  1, STRESS PERIOD  13
 UBDSV1 SAVING "FLOW RIGHT FACE " ON UNIT   9 AT TIME STEP  1, STRESS PERIOD  13
 UBDSV1 SAVING "FLOW FRONT FACE " ON UNIT   9 AT TIME STEP  1, STRESS PERIOD  13
 UBDSV1 SAVING "FLOW LOWER FACE " ON UNIT   9 AT TIME STEP  1, STRESS PERIOD  13
 UBDSV3 SAVING "        RECHARGE" ON UNIT   9 AT TIME STEP  1, STRESS PERIOD  13

 HEAD WILL BE SAVED ON UNIT   37 AT END OF TIME STEP    1, STRESS PERIOD   13

 DRAWDOWN WILL BE SAVED ON UNIT   38 AT END OF TIME STEP    1, STRESS PERIOD   13
1
  VOLUMETRIC BUDGET FOR ENTIRE MODEL AT END OF TIME STEP    1, STRESS PERIOD  13
  ------------------------------------------------------------------------------

     CUMULATIVE VOLUMES      L**3       RATES FOR THIS TIME STEP      L**3/T
     ------------------                 ------------------------

           IN:                                      IN:
           ---                                      ---
             STORAGE =        5525.4941               STORAGE =       4.4281E-04
       CONSTANT HEAD =        3067.2898         CONSTANT HEAD =       2.8135E-03
            RECHARGE =         152.1193              RECHARGE =       9.7813E-05

            TOTAL IN =        8744.9033              TOTAL IN =       3.3541E-03

          OUT:                                     OUT:
          ----                                     ----
             STORAGE =          11.3455               STORAGE =           0.0000
       CONSTANT HEAD =        8733.7295         CONSTANT HEAD =       3.3542E-03
            RECHARGE =           0.0000              RECHARGE =           0.0000

           TOTAL OUT =        8745.0752             TOTAL OUT =       3.3542E-03

            IN - OUT =          -0.1719              IN - OUT =      -1.2666E-07

 PERCENT DISCREPANCY =          -0.00     PERCENT DISCREPANCY =          -0.00






         TIME SUMMARY AT END OF TIME STEP    1 IN STRESS PERIOD   13
                    SECONDS     MINUTES      HOURS       DAYS        YEARS
                    -----------------------------------------------------------
   TIME STEP LENGTH  86400.      1440.0      24.000      1.0000     2.73785E-03
 STRESS PERIOD TIME  86400.      1440.0      24.000      1.0000     2.73785E-03
         TOTAL TIME 1.55520E+06  25920.      432.00      18.000     4.92813E-02
1
1
                            STRESS PERIOD NO.   14, LENGTH =   259200.0    
                            -----------------------------------------------

                              NUMBER OF TIME STEPS =     3

                               MULTIPLIER FOR DELT =     1.000

                            INITIAL TIME STEP SIZE =   86400.00    

 REUSING RECH FROM LAST STRESS PERIOD

 CHD NO.   LAYER   ROW   COL    START HEAD        END HEAD         IFACE           
 ----------------------------------------------------------------------------------
      1      4      1      1       109.4           109.3           0.000    
      2      5      1      1       109.4           109.3           0.000    
      3      4      1      2       109.4           109.3           0.000    
      4      5      1      2       109.4           109.3           0.000    
      5      4      1      3       109.4           109.3           0.000    
      6      5      1      3       109.4           109.3           0.000    
      7      4      1      4       109.4           109.3           0.000    
      8      5      1      4       109.4           109.3           0.000    
      9      4      1      5       109.4           109.3           0.000    
     10      5      1      5       109.4           109.3           0.000    
     11      4      1      6       109.4           109.3           0.000    
     12      5      1      6       109.4           109.3           0.000    
     13      4      1      7       109.4           109.3           0.000    
     14      5      1      7       109.4           109.3           0.000    
     15      4      1      8       109.4           109.3           0.000    
     16      5      1      8       109.4           109.3           0.000    
     17      4      1      9       109.4           109.3           0.000    
     18      5      1      9       109.4           109.3           0.000    
     19      4      1     10       109.4           109.3           0.000    
     20      5      1     10       109.4           109.3           0.000    
     21      4      1     11       109.4           109.3           0.000    
     22      5      1     11       109.4           109.3           0.000    
     23      4      1     12       109.4           109.3           0.000    
     24      5      1     12       109.4           109.3           0.000    
     25      4      1     13       109.4           109.3           0.000    
     26      5      1     13       109.4           109.3           0.000    
     27      4      1     14       109.4           109.3           0.000    
     28      5      1     14       109.4           109.3           0.000    
     29      4      1     15       109.4           109.3           0.000    
     30      5      1     15       109.4           109.3           0.000    
     31      4      1     16       109.4           109.3           0.000    
     32      5      1     16       109.4           109.3           0.000    
     33      4      1     17       109.4           109.3           0.000    
     34      5      1     17       109.4           109.3           0.000    
     35      4     17     17       109.1           109.0           0.000    
     36      5     17     17       109.1           109.0           0.000    
     37      4     18     17       109.1           109.0           0.000    
     38      5     18     17       109.1           109.0           0.000    
     39      4     18     16       109.1           109.0           0.000    
     40      5     18     16       109.1           109.0           0.000    
     41      4     19     16       109.1           109.0           0.000    
     42      5     19     16       109.1           109.0           0.000    
     43      4     19     15       109.1           109.0           0.000    
     44      5     19     15       109.1           109.0           0.000    
     45      4     20     15       109.1           109.0           0.000    
     46      5     20     15       109.1           109.0           0.000    
     47      4     20     14       109.1           109.0           0.000    
     48      5     20     14       109.1           109.0           0.000    
     49      4     20     13       109.1           109.0           0.000    
     50      5     20     13       109.1           109.0           0.000    
     51      4     20     12       109.1           109.0           0.000    
     52      5     20     12       109.1           109.0           0.000    
     53      4     20     11       109.1           109.0           0.000    
     54      5     20     11       109.1           109.0           0.000    
     55      4     21     11       109.1           109.0           0.000    
     56      5     21     11       109.1           109.0           0.000    
     57      4     21     10       109.1           109.0           0.000    
     58      5     21     10       109.1           109.0           0.000    
     59      4     21      9       109.1           109.0           0.000    
     60      5     21      9       109.1           109.0           0.000    
     61      4     21      8       109.1           109.0           0.000    
     62      5     21      8       109.1           109.0           0.000    
     63      4     21      7       109.1           109.0           0.000    
     64      5     21      7       109.1           109.0           0.000    
     65      4     21      6       109.1           109.0           0.000    
     66      5     21      6       109.1           109.0           0.000    
     67      4     21      5       109.1           109.0           0.000    
     68      5     21      5       109.1           109.0           0.000    
     69      4     22      5       109.1           109.0           0.000    
     70      5     22      5       109.1           109.0           0.000    
     71      4     22      4       109.1           109.0           0.000    
     72      5     22      4       109.1           109.0           0.000    
     73      4     22      3       109.1           109.0           0.000    
     74      5     22      3       109.1           109.0           0.000    
     75      4     22      2       109.1           109.0           0.000    
     76      5     22      2       109.1           109.0           0.000    
     77      4     22      1       109.1           109.0           0.000    
     78      5     22      1       109.1           109.0           0.000    


     78 TIME-VARIANT SPECIFIED-HEAD CELLS

 SOLVING FOR HEAD 

 CELL CONVERSIONS FOR ITER.=  2  LAYER=  2  STEP=  1  PERIOD=  14   (ROW,COL)
    DRY( 11,  5)   DRY( 16,  4)   DRY( 21,  3)   


     3 CALLS TO PCG ROUTINE FOR TIME STEP   1 IN STRESS PERIOD   14
    46 TOTAL ITERATIONS

 MAXIMUM HEAD CHANGE FOR EACH ITERATION (1 INDICATES THE FIRST INNER ITERATION):

    HEAD CHANGE    HEAD CHANGE    HEAD CHANGE    HEAD CHANGE    HEAD CHANGE 
   LAYER,ROW,COL  LAYER,ROW,COL  LAYER,ROW,COL  LAYER,ROW,COL  LAYER,ROW,COL
 ---------------------------------------------------------------------------
  1 -0.9600E-01  0  0.7679E-01  0 -0.6071E-01  0  0.4169E-01  0 -0.3014E-01
   (  5, 21,  2)  (  5, 20,  1)  (  5, 19,  1)  (  5, 17,  1)  (  5, 16,  1)
  0  0.1639E-01  0 -0.1477E-01  0  0.5419E-02  0  0.3787E-02  0 -0.2551E-02
   (  5, 19,  1)  (  5, 18,  1)  (  5, 12,  2)  (  5, 18,  1)  (  5, 14,  3)
  0  0.1895E-02  0 -0.1442E-02  0  0.9514E-03  0  0.4823E-03  0 -0.2883E-03
   (  5, 19,  1)  (  5, 16,  3)  (  5, 15,  3)  (  5, 19,  3)  (  5,  7,  1)
  0  0.2069E-03  0 -0.1498E-03  0  0.8027E-04  0 -0.1005E-03  0  0.7736E-04
   (  5, 17,  2)  (  5, 16,  2)  (  5,  6,  1)  (  5,  6,  1)  (  5, 17,  1)
  0 -0.5200E-04  0 -0.2936E-04  0 -0.1866E-04  0 -0.1474E-04  0 -0.7044E-05
   (  5, 16,  1)  (  5,  6,  1)  (  5, 14,  1)  (  5, 19,  2)  (  5,  6,  1)
  0 -0.5616E-05  0  0.3091E-05  0 -0.2550E-05  0  0.1335E-05  0  0.8597E-06
   (  5, 15,  4)  (  5, 12,  6)  (  5, 11,  6)  (  5, 10,  6)  (  5, 11,  1)
  1 -0.1293E-03  0 -0.1376E-03  0  0.7867E-04  0 -0.7425E-04  0  0.5459E-04
   (  5, 21,  3)  (  5, 14,  1)  (  5, 15,  1)  (  5, 19,  1)  (  5, 18,  1)
  0 -0.2876E-04  0  0.2174E-04  0 -0.2023E-04  0  0.1607E-04  0 -0.1049E-04
   (  5, 17,  1)  (  5, 20,  1)  (  5, 19,  1)  (  5, 20,  2)  (  5, 20,  1)
  0  0.6324E-05  0 -0.2147E-05  0  0.2269E-05  0  0.1004E-05  0 -0.8103E-06
   (  5, 19,  1)  (  5, 18,  3)  (  5, 19,  2)  (  5, 21,  1)  (  5, 20,  1)
  1  0.5942E-06
   (  5, 20,  3)

 MAXIMUM RESIDUAL FOR EACH ITERATION (1 INDICATES THE FIRST INNER ITERATION):

    RESIDUAL       RESIDUAL       RESIDUAL       RESIDUAL       RESIDUAL    
   LAYER,ROW,COL  LAYER,ROW,COL  LAYER,ROW,COL  LAYER,ROW,COL  LAYER,ROW,COL
 ---------------------------------------------------------------------------
  1  0.1669E-02  0  0.1300E-02  0  0.8742E-03  0  0.5397E-03  0  0.3270E-03
   (  3, 17, 17)  (  3, 17, 17)  (  3, 17, 17)  (  3, 17, 17)  (  3, 20, 11)
  0  0.2046E-03  0  0.1155E-03  0  0.8134E-04  0  0.6194E-04  0  0.4529E-04
   (  3, 20, 11)  (  3, 20, 11)  (  4, 16, 17)  (  4, 16, 17)  (  4, 16, 17)
  0  0.3271E-04  0  0.2211E-04  0  0.1472E-04  0  0.9608E-05  0  0.6307E-05
   (  4, 16, 17)  (  4, 16, 17)  (  4, 16, 17)  (  4, 16, 17)  (  4, 16, 17)
  0 -0.4243E-05  0 -0.2831E-05  0 -0.1699E-05  0 -0.1011E-05  0 -0.6563E-06
   (  3, 21,  6)  (  3, 21,  6)  (  3, 21,  6)  (  3, 21,  6)  (  3, 21,  6)
  0 -0.3685E-06  0  0.2176E-06  0  0.1734E-06  0  0.1258E-06  0  0.9716E-07
   (  3, 21,  5)  (  5, 15, 17)  (  5, 15, 17)  (  5, 15, 17)  (  3, 17, 17)
  0  0.7103E-07  0  0.4885E-07  0  0.3234E-07  0  0.2077E-07  0  0.1361E-07
   (  3, 17, 17)  (  3, 17, 17)  (  3, 17, 17)  (  3, 17, 17)  (  3, 17, 17)
  1  0.2093E-05  0  0.1270E-05  0 -0.8497E-06  0 -0.7208E-06  0 -0.5788E-06
   (  3, 21,  3)  (  3, 21,  3)  (  4, 21,  3)  (  4, 21,  3)  (  4, 21,  3)
  0 -0.3993E-06  0 -0.2750E-06  0 -0.1525E-06  0 -0.8814E-07  0 -0.4804E-07
   (  4, 21,  3)  (  4, 21,  3)  (  4, 21,  3)  (  4, 21,  3)  (  3, 21,  3)
  0 -0.3656E-07  0 -0.2952E-07  0 -0.2218E-07  0  0.1611E-07  0  0.1192E-07
   (  4, 20,  5)  (  4, 20,  4)  (  4, 20,  4)  (  4, 21,  4)  (  4, 21,  4)
  1  0.9669E-08
   (  4, 21,  4)



 OUTPUT CONTROL FOR STRESS PERIOD   14   TIME STEP    1
    SAVE HEAD FOR ALL LAYERS
    SAVE DRAWDOWN FOR ALL LAYERS
    SAVE BUDGET
    PRINT BUDGET
 UBDSV1 SAVING "         STORAGE" ON UNIT   9 AT TIME STEP  1, STRESS PERIOD  14
 UBDSV2 SAVING "   CONSTANT HEAD" ON UNIT   9 AT TIME STEP  1, STRESS PERIOD  14
 UBDSV1 SAVING "FLOW RIGHT FACE " ON UNIT   9 AT TIME STEP  1, STRESS PERIOD  14
 UBDSV1 SAVING "FLOW FRONT FACE " ON UNIT   9 AT TIME STEP  1, STRESS PERIOD  14
 UBDSV1 SAVING "FLOW LOWER FACE " ON UNIT   9 AT TIME STEP  1, STRESS PERIOD  14
 UBDSV3 SAVING "        RECHARGE" ON UNIT   9 AT TIME STEP  1, STRESS PERIOD  14

 HEAD WILL BE SAVED ON UNIT   37 AT END OF TIME STEP    1, STRESS PERIOD   14

 DRAWDOWN WILL BE SAVED ON UNIT   38 AT END OF TIME STEP    1, STRESS PERIOD   14
1
  VOLUMETRIC BUDGET FOR ENTIRE MODEL AT END OF TIME STEP    1, STRESS PERIOD  14
  ------------------------------------------------------------------------------

     CUMULATIVE VOLUMES      L**3       RATES FOR THIS TIME STEP      L**3/T
     ------------------                 ------------------------

           IN:                                      IN:
           ---                                      ---
             STORAGE =        5616.8862               STORAGE =       1.0578E-03
       CONSTANT HEAD =        3302.0513         CONSTANT HEAD =       2.7171E-03
            RECHARGE =         160.5703              RECHARGE =       9.7813E-05

            TOTAL IN =        9079.5078              TOTAL IN =       3.8727E-03

          OUT:                                     OUT:
          ----                                     ----
             STORAGE =          11.3455               STORAGE =           0.0000
       CONSTANT HEAD =        9068.3467         CONSTANT HEAD =       3.8729E-03
            RECHARGE =           0.0000              RECHARGE =           0.0000

           TOTAL OUT =        9079.6924             TOTAL OUT =       3.8729E-03

            IN - OUT =          -0.1846              IN - OUT =      -1.4273E-07

 PERCENT DISCREPANCY =          -0.00     PERCENT DISCREPANCY =          -0.00






         TIME SUMMARY AT END OF TIME STEP    1 IN STRESS PERIOD   14
                    SECONDS     MINUTES      HOURS       DAYS        YEARS
                    -----------------------------------------------------------
   TIME STEP LENGTH  86400.      1440.0      24.000      1.0000     2.73785E-03
 STRESS PERIOD TIME  86400.      1440.0      24.000      1.0000     2.73785E-03
         TOTAL TIME 1.64160E+06  27360.      456.00      19.000     5.20192E-02
1

 SOLVING FOR HEAD 

 CELL CONVERSIONS FOR ITER.=  2  LAYER=  2  STEP=  2  PERIOD=  14   (ROW,COL)
    DRY( 12,  5)   DRY( 17,  4)   
     3 CALLS TO PCG ROUTINE FOR TIME STEP   2 IN STRESS PERIOD   14
    47 TOTAL ITERATIONS

 MAXIMUM HEAD CHANGE FOR EACH ITERATION (1 INDICATES THE FIRST INNER ITERATION):

    HEAD CHANGE    HEAD CHANGE    HEAD CHANGE    HEAD CHANGE    HEAD CHANGE 
   LAYER,ROW,COL  LAYER,ROW,COL  LAYER,ROW,COL  LAYER,ROW,COL  LAYER,ROW,COL
 ---------------------------------------------------------------------------
  1 -0.9932E-01  0  0.7958E-01  0 -0.6296E-01  0  0.4555E-01  0 -0.3019E-01
   (  5, 21,  2)  (  5, 20,  1)  (  5, 19,  1)  (  5, 17,  1)  (  5, 16,  1)
  0  0.1781E-01  0 -0.1413E-01  0 -0.6024E-02  0  0.3901E-02  0 -0.2498E-02
   (  5, 19,  1)  (  5, 18,  1)  (  5, 19,  1)  (  5, 18,  1)  (  5, 14,  3)
  0  0.1888E-02  0 -0.1464E-02  0  0.1034E-02  0  0.4655E-03  0 -0.2992E-03
   (  5, 19,  1)  (  5, 16,  3)  (  5, 15,  3)  (  5, 19,  3)  (  5,  7,  1)
  0  0.2008E-03  0 -0.1522E-03  0 -0.8508E-04  0 -0.9799E-04  0 -0.8192E-04
   (  5, 17,  2)  (  5, 16,  2)  (  5, 17,  2)  (  5,  6,  1)  (  5, 15,  1)
  0  0.4495E-04  0 -0.3291E-04  0 -0.1807E-04  0  0.1188E-04  0 -0.9980E-05
   (  5,  6,  1)  (  5,  6,  1)  (  5, 14,  4)  (  5, 19,  1)  (  5, 18,  1)
  0 -0.6137E-05  0  0.2936E-05  0 -0.2604E-05  0 -0.1376E-05  0  0.1085E-05
   (  5, 15,  4)  (  5, 12,  6)  (  5, 11,  6)  (  5, 16,  5)  (  5, 16,  4)
  1 -0.1618E-03  0 -0.1806E-03  0  0.9799E-04  0 -0.8956E-04  0  0.6656E-04
   (  5, 12,  5)  (  5, 14,  1)  (  5, 16,  1)  (  5, 17,  1)  (  5, 18,  1)
  0 -0.4239E-04  0  0.2934E-04  0  0.1865E-04  0 -0.1025E-04  0 -0.9859E-05
   (  5, 19,  1)  (  5, 20,  1)  (  5, 18,  3)  (  5, 17,  2)  (  5, 20,  1)
  0  0.5570E-05  0 -0.5443E-05  0 -0.2872E-05  0 -0.1382E-05  0 -0.1135E-05
   (  5, 21,  1)  (  5, 20,  2)  (  5, 14,  4)  (  5, 19,  1)  (  5, 17,  3)
  0  0.6516E-06  1 -0.5965E-06
   (  5,  6,  1)  (  5,  6,  1)

 MAXIMUM RESIDUAL FOR EACH ITERATION (1 INDICATES THE FIRST INNER ITERATION):

    RESIDUAL       RESIDUAL       RESIDUAL       RESIDUAL       RESIDUAL    
   LAYER,ROW,COL  LAYER,ROW,COL  LAYER,ROW,COL  LAYER,ROW,COL  LAYER,ROW,COL
 ---------------------------------------------------------------------------
  1  0.1670E-02  0  0.1310E-02  0  0.8936E-03  0  0.5693E-03  0  0.3549E-03
   (  3, 17, 17)  (  3, 17, 17)  (  3, 17, 17)  (  3, 17, 17)  (  3, 17, 17)
  0  0.2118E-03  0  0.1155E-03  0  0.8026E-04  0  0.6103E-04  0  0.4453E-04
   (  3, 20, 11)  (  3, 20, 11)  (  4, 16, 17)  (  4, 16, 17)  (  4, 16, 17)
  0  0.3228E-04  0  0.2193E-04  0  0.1467E-04  0  0.9593E-05  0 -0.6335E-05
   (  4, 16, 17)  (  4, 16, 17)  (  4, 16, 17)  (  4, 16, 17)  (  3, 21,  6)
  0 -0.4399E-05  0 -0.2938E-05  0 -0.1764E-05  0 -0.1074E-05  0 -0.7132E-06
   (  3, 21,  6)  (  3, 21,  6)  (  3, 21,  6)  (  3, 21,  6)  (  3, 21,  6)
  0 -0.3845E-06  0  0.2231E-06  0  0.1579E-06  0  0.1148E-06  0  0.8790E-07
   (  3, 21,  5)  (  5, 15, 17)  (  5, 15, 17)  (  5, 15, 17)  (  5, 15, 17)
  0  0.6548E-07  0  0.4504E-07  0  0.2989E-07  0  0.1924E-07  0  0.1219E-07
   (  3, 17, 17)  (  3, 17, 17)  (  3, 17, 17)  (  3, 17, 17)  (  3, 17, 17)
  1  0.2975E-05  0  0.2077E-05  0  0.9890E-06  0 -0.7530E-06  0 -0.5171E-06
   (  3, 12,  5)  (  3, 12,  5)  (  3, 12,  5)  (  4, 12,  5)  (  4, 12,  5)
  0 -0.3597E-06  0 -0.2403E-06  0 -0.1321E-06  0  0.1076E-06  0  0.8015E-07
   (  4, 17,  4)  (  4, 17,  4)  (  4, 17,  4)  (  4, 17,  3)  (  4, 17,  3)
  0  0.5902E-07  0  0.3842E-07  0 -0.2198E-07  0 -0.1598E-07  0 -0.1124E-07
   (  4, 11,  5)  (  4, 12,  4)  (  3, 12,  5)  (  4, 18,  3)  (  4, 18,  3)
  0  0.6826E-08  1 -0.5927E-08
   (  4, 21,  4)  (  4, 13,  4)



 OUTPUT CONTROL FOR STRESS PERIOD   14   TIME STEP    2
    SAVE HEAD FOR ALL LAYERS
    SAVE DRAWDOWN FOR ALL LAYERS
    SAVE BUDGET
    PRINT BUDGET
 UBDSV1 SAVING "         STORAGE" ON UNIT   9 AT TIME STEP  2, STRESS PERIOD  14
 UBDSV2 SAVING "   CONSTANT HEAD" ON UNIT   9 AT TIME STEP  2, STRESS PERIOD  14
 UBDSV1 SAVING "FLOW RIGHT FACE " ON UNIT   9 AT TIME STEP  2, STRESS PERIOD  14
 UBDSV1 SAVING "FLOW FRONT FACE " ON UNIT   9 AT TIME STEP  2, STRESS PERIOD  14
 UBDSV1 SAVING "FLOW LOWER FACE " ON UNIT   9 AT TIME STEP  2, STRESS PERIOD  14
 UBDSV3 SAVING "        RECHARGE" ON UNIT   9 AT TIME STEP  2, STRESS PERIOD  14

 HEAD WILL BE SAVED ON UNIT   37 AT END OF TIME STEP    2, STRESS PERIOD   14

 DRAWDOWN WILL BE SAVED ON UNIT   38 AT END OF TIME STEP    2, STRESS PERIOD   14
1
  VOLUMETRIC BUDGET FOR ENTIRE MODEL AT END OF TIME STEP    2, STRESS PERIOD  14
  ------------------------------------------------------------------------------

     CUMULATIVE VOLUMES      L**3       RATES FOR THIS TIME STEP      L**3/T
     ------------------                 ------------------------

           IN:                                      IN:
           ---                                      ---
             STORAGE =        5724.4800               STORAGE =       1.2453E-03
       CONSTANT HEAD =        3539.5229         CONSTANT HEAD =       2.7485E-03
            RECHARGE =         169.0214              RECHARGE =       9.7813E-05

            TOTAL IN =        9433.0244              TOTAL IN =       4.0916E-03

          OUT:                                     OUT:
          ----                                     ----
             STORAGE =          11.3455               STORAGE =           0.0000
       CONSTANT HEAD =        9421.8740         CONSTANT HEAD =       4.0917E-03
            RECHARGE =           0.0000              RECHARGE =           0.0000

           TOTAL OUT =        9433.2197             TOTAL OUT =       4.0917E-03

            IN - OUT =          -0.1953              IN - OUT =      -1.2247E-07

 PERCENT DISCREPANCY =          -0.00     PERCENT DISCREPANCY =          -0.00






         TIME SUMMARY AT END OF TIME STEP    2 IN STRESS PERIOD   14
                    SECONDS     MINUTES      HOURS       DAYS        YEARS
                    -----------------------------------------------------------
   TIME STEP LENGTH  86400.      1440.0      24.000      1.0000     2.73785E-03
 STRESS PERIOD TIME 1.72800E+05  2880.0      48.000      2.0000     5.47570E-03
         TOTAL TIME 1.72800E+06  28800.      480.00      20.000     5.47570E-02
1

 SOLVING FOR HEAD 

 CELL CONVERSIONS FOR ITER.=  2  LAYER=  2  STEP=  3  PERIOD=  14   (ROW,COL)
    DRY( 18,  4)   
     3 CALLS TO PCG ROUTINE FOR TIME STEP   3 IN STRESS PERIOD   14
    46 TOTAL ITERATIONS

 MAXIMUM HEAD CHANGE FOR EACH ITERATION (1 INDICATES THE FIRST INNER ITERATION):

    HEAD CHANGE    HEAD CHANGE    HEAD CHANGE    HEAD CHANGE    HEAD CHANGE 
   LAYER,ROW,COL  LAYER,ROW,COL  LAYER,ROW,COL  LAYER,ROW,COL  LAYER,ROW,COL
 ---------------------------------------------------------------------------
  1 -0.1006      0  0.8063E-01  0 -0.6361E-01  0  0.4605E-01  0 -0.2986E-01
   (  5, 21,  2)  (  5, 20,  1)  (  5, 19,  1)  (  5, 17,  1)  (  5, 16,  1)
  0  0.1770E-01  0 -0.1398E-01  0 -0.6235E-02  0  0.3963E-02  0 -0.2460E-02
   (  5, 19,  1)  (  5, 18,  1)  (  5, 19,  1)  (  5, 18,  1)  (  5, 14,  3)
  0  0.1883E-02  0 -0.1461E-02  0  0.1058E-02  0  0.4589E-03  0 -0.2985E-03
   (  5, 19,  1)  (  5, 16,  3)  (  5, 15,  3)  (  5, 19,  3)  (  5,  7,  1)
  0  0.2041E-03  0 -0.1659E-03  0  0.8012E-04  0 -0.1097E-03  0  0.7932E-04
   (  5, 17,  2)  (  5, 16,  2)  (  5,  6,  1)  (  5, 15,  1)  (  5, 17,  1)
  0  0.5316E-04  0 -0.3356E-04  0 -0.1843E-04  0  0.1097E-04  0 -0.1001E-04
   (  5,  6,  1)  (  5,  6,  1)  (  5, 14,  4)  (  5, 19,  1)  (  5, 18,  1)
  0 -0.5872E-05  0  0.2884E-05  0 -0.2595E-05  0 -0.1404E-05  0  0.1107E-05
   (  5, 15,  4)  (  5, 12,  6)  (  5, 11,  6)  (  5, 16,  5)  (  5, 16,  4)
  1 -0.1610E-03  0 -0.1475E-03  0  0.9181E-04  0 -0.6107E-04  0  0.5440E-04
   (  5, 18,  4)  (  5, 15,  1)  (  5, 15,  1)  (  5, 19,  1)  (  5, 18,  1)
  0 -0.2862E-04  0  0.2402E-04  0 -0.1655E-04  0 -0.9818E-05  0 -0.5441E-05
   (  5, 20,  1)  (  5, 20,  1)  (  5, 19,  1)  (  5, 17,  2)  (  5,  8,  1)
  0 -0.3819E-05  0  0.2863E-05  0 -0.2340E-05  0  0.1807E-05  0 -0.7866E-06
   (  5, 14,  2)  (  5, 19,  1)  (  5, 21,  2)  (  5, 20,  1)  (  5, 19,  1)
  1  0.5570E-06
   (  5, 19,  1)

 MAXIMUM RESIDUAL FOR EACH ITERATION (1 INDICATES THE FIRST INNER ITERATION):

    RESIDUAL       RESIDUAL       RESIDUAL       RESIDUAL       RESIDUAL    
   LAYER,ROW,COL  LAYER,ROW,COL  LAYER,ROW,COL  LAYER,ROW,COL  LAYER,ROW,COL
 ---------------------------------------------------------------------------
  1  0.1668E-02  0  0.1309E-02  0  0.8974E-03  0  0.5768E-03  0  0.3589E-03
   (  3, 17, 17)  (  3, 17, 17)  (  3, 17, 17)  (  3, 17, 17)  (  3, 17, 17)
  0  0.2114E-03  0  0.1146E-03  0  0.7954E-04  0  0.6039E-04  0  0.4404E-04
   (  3, 20, 11)  (  3, 20, 11)  (  4, 16, 17)  (  4, 16, 17)  (  4, 16, 17)
  0  0.3197E-04  0  0.2177E-04  0  0.1459E-04  0  0.9544E-05  0 -0.6375E-05
   (  4, 16, 17)  (  4, 16, 17)  (  4, 16, 17)  (  4, 16, 17)  (  3, 21,  6)
  0 -0.4423E-05  0 -0.2953E-05  0 -0.1794E-05  0 -0.1229E-05  0 -0.7545E-06
   (  3, 21,  6)  (  3, 21,  6)  (  3, 21,  6)  (  3, 21,  6)  (  3, 21,  6)
  0 -0.3882E-06  0  0.2244E-06  0  0.1583E-06  0  0.1129E-06  0  0.8633E-07
   (  3, 21,  5)  (  5, 15, 17)  (  5, 15, 17)  (  5, 15, 17)  (  5, 15, 17)
  0  0.6295E-07  0  0.4329E-07  0  0.2874E-07  0  0.1856E-07  0  0.1193E-07
   (  3, 17, 17)  (  3, 17, 17)  (  3, 17, 17)  (  3, 17, 17)  (  3, 17, 17)
  1  0.2755E-05  0  0.1676E-05  0 -0.1088E-05  0 -0.7883E-06  0 -0.5662E-06
   (  3, 18,  4)  (  3, 18,  4)  (  4, 18,  4)  (  4, 18,  4)  (  4, 18,  4)
  0 -0.3208E-06  0 -0.1713E-06  0  0.1459E-06  0  0.1236E-06  0  0.7934E-07
   (  4, 18,  4)  (  4, 18,  4)  (  4, 18,  3)  (  4, 18,  3)  (  4, 18,  3)
  0 -0.4833E-07  0  0.3469E-07  0 -0.2661E-07  0 -0.1769E-07  0 -0.1105E-07
   (  3, 18,  4)  (  4, 18,  4)  (  4, 17,  5)  (  4, 19,  3)  (  4, 19,  3)
  1 -0.9472E-08
   (  4, 19,  3)



 OUTPUT CONTROL FOR STRESS PERIOD   14   TIME STEP    3
    SAVE HEAD FOR ALL LAYERS
    SAVE DRAWDOWN FOR ALL LAYERS
    SAVE BUDGET
    PRINT BUDGET
 UBDSV1 SAVING "         STORAGE" ON UNIT   9 AT TIME STEP  3, STRESS PERIOD  14
 UBDSV2 SAVING "   CONSTANT HEAD" ON UNIT   9 AT TIME STEP  3, STRESS PERIOD  14
 UBDSV1 SAVING "FLOW RIGHT FACE " ON UNIT   9 AT TIME STEP  3, STRESS PERIOD  14
 UBDSV1 SAVING "FLOW FRONT FACE " ON UNIT   9 AT TIME STEP  3, STRESS PERIOD  14
 UBDSV1 SAVING "FLOW LOWER FACE " ON UNIT   9 AT TIME STEP  3, STRESS PERIOD  14
 UBDSV3 SAVING "        RECHARGE" ON UNIT   9 AT TIME STEP  3, STRESS PERIOD  14

 HEAD WILL BE SAVED ON UNIT   37 AT END OF TIME STEP    3, STRESS PERIOD   14

 DRAWDOWN WILL BE SAVED ON UNIT   38 AT END OF TIME STEP    3, STRESS PERIOD   14
1
  VOLUMETRIC BUDGET FOR ENTIRE MODEL AT END OF TIME STEP    3, STRESS PERIOD  14
  ------------------------------------------------------------------------------

     CUMULATIVE VOLUMES      L**3       RATES FOR THIS TIME STEP      L**3/T
     ------------------                 ------------------------

           IN:                                      IN:
           ---                                      ---
             STORAGE =        5837.8799               STORAGE =       1.3125E-03
       CONSTANT HEAD =        3783.5967         CONSTANT HEAD =       2.8249E-03
            RECHARGE =         177.4725              RECHARGE =       9.7813E-05

            TOTAL IN =        9798.9492              TOTAL IN =       4.2352E-03

          OUT:                                     OUT:
          ----                                     ----
             STORAGE =          11.3455               STORAGE =           0.0000
       CONSTANT HEAD =        9787.8096         CONSTANT HEAD =       4.2354E-03
            RECHARGE =           0.0000              RECHARGE =           0.0000

           TOTAL OUT =        9799.1553             TOTAL OUT =       4.2354E-03

            IN - OUT =          -0.2061              IN - OUT =      -1.2433E-07

 PERCENT DISCREPANCY =          -0.00     PERCENT DISCREPANCY =          -0.00






         TIME SUMMARY AT END OF TIME STEP    3 IN STRESS PERIOD   14
                    SECONDS     MINUTES      HOURS       DAYS        YEARS
                    -----------------------------------------------------------
   TIME STEP LENGTH  86400.      1440.0      24.000      1.0000     2.73785E-03
 STRESS PERIOD TIME 2.59200E+05  4320.0      72.000      3.0000     8.21355E-03
         TOTAL TIME 1.81440E+06  30240.      504.00      21.000     5.74949E-02
1
1
                            STRESS PERIOD NO.   15, LENGTH =   86400.00    
                            -----------------------------------------------

                              NUMBER OF TIME STEPS =     1

                               MULTIPLIER FOR DELT =     1.000

                            INITIAL TIME STEP SIZE =   86400.00    

 REUSING RECH FROM LAST STRESS PERIOD

 CHD NO.   LAYER   ROW   COL    START HEAD        END HEAD         IFACE           
 ----------------------------------------------------------------------------------
      1      4      1      1       109.3           109.3           0.000    
      2      5      1      1       109.3           109.3           0.000    
      3      4      1      2       109.3           109.3           0.000    
      4      5      1      2       109.3           109.3           0.000    
      5      4      1      3       109.3           109.3           0.000    
      6      5      1      3       109.3           109.3           0.000    
      7      4      1      4       109.3           109.3           0.000    
      8      5      1      4       109.3           109.3           0.000    
      9      4      1      5       109.3           109.3           0.000    
     10      5      1      5       109.3           109.3           0.000    
     11      4      1      6       109.3           109.3           0.000    
     12      5      1      6       109.3           109.3           0.000    
     13      4      1      7       109.3           109.3           0.000    
     14      5      1      7       109.3           109.3           0.000    
     15      4      1      8       109.3           109.3           0.000    
     16      5      1      8       109.3           109.3           0.000    
     17      4      1      9       109.3           109.3           0.000    
     18      5      1      9       109.3           109.3           0.000    
     19      4      1     10       109.3           109.3           0.000    
     20      5      1     10       109.3           109.3           0.000    
     21      4      1     11       109.3           109.3           0.000    
     22      5      1     11       109.3           109.3           0.000    
     23      4      1     12       109.3           109.3           0.000    
     24      5      1     12       109.3           109.3           0.000    
     25      4      1     13       109.3           109.3           0.000    
     26      5      1     13       109.3           109.3           0.000    
     27      4      1     14       109.3           109.3           0.000    
     28      5      1     14       109.3           109.3           0.000    
     29      4      1     15       109.3           109.3           0.000    
     30      5      1     15       109.3           109.3           0.000    
     31      4      1     16       109.3           109.3           0.000    
     32      5      1     16       109.3           109.3           0.000    
     33      4      1     17       109.3           109.3           0.000    
     34      5      1     17       109.3           109.3           0.000    
     35      4     17     17       109.0           109.1           0.000    
     36      5     17     17       109.0           109.1           0.000    
     37      4     18     17       109.0           109.1           0.000    
     38      5     18     17       109.0           109.1           0.000    
     39      4     18     16       109.0           109.1           0.000    
     40      5     18     16       109.0           109.1           0.000    
     41      4     19     16       109.0           109.1           0.000    
     42      5     19     16       109.0           109.1           0.000    
     43      4     19     15       109.0           109.1           0.000    
     44      5     19     15       109.0           109.1           0.000    
     45      4     20     15       109.0           109.1           0.000    
     46      5     20     15       109.0           109.1           0.000    
     47      4     20     14       109.0           109.1           0.000    
     48      5     20     14       109.0           109.1           0.000    
     49      4     20     13       109.0           109.1           0.000    
     50      5     20     13       109.0           109.1           0.000    
     51      4     20     12       109.0           109.1           0.000    
     52      5     20     12       109.0           109.1           0.000    
     53      4     20     11       109.0           109.1           0.000    
     54      5     20     11       109.0           109.1           0.000    
     55      4     21     11       109.0           109.1           0.000    
     56      5     21     11       109.0           109.1           0.000    
     57      4     21     10       109.0           109.1           0.000    
     58      5     21     10       109.0           109.1           0.000    
     59      4     21      9       109.0           109.1           0.000    
     60      5     21      9       109.0           109.1           0.000    
     61      4     21      8       109.0           109.1           0.000    
     62      5     21      8       109.0           109.1           0.000    
     63      4     21      7       109.0           109.1           0.000    
     64      5     21      7       109.0           109.1           0.000    
     65      4     21      6       109.0           109.1           0.000    
     66      5     21      6       109.0           109.1           0.000    
     67      4     21      5       109.0           109.1           0.000    
     68      5     21      5       109.0           109.1           0.000    
     69      4     22      5       109.0           109.1           0.000    
     70      5     22      5       109.0           109.1           0.000    
     71      4     22      4       109.0           109.1           0.000    
     72      5     22      4       109.0           109.1           0.000    
     73      4     22      3       109.0           109.1           0.000    
     74      5     22      3       109.0           109.1           0.000    
     75      4     22      2       109.0           109.1           0.000    
     76      5     22      2       109.0           109.1           0.000    
     77      4     22      1       109.0           109.1           0.000    
     78      5     22      1       109.0           109.1           0.000    


     78 TIME-VARIANT SPECIFIED-HEAD CELLS

 SOLVING FOR HEAD 


     4 CALLS TO PCG ROUTINE FOR TIME STEP   1 IN STRESS PERIOD   15
    52 TOTAL ITERATIONS

 MAXIMUM HEAD CHANGE FOR EACH ITERATION (1 INDICATES THE FIRST INNER ITERATION):

    HEAD CHANGE    HEAD CHANGE    HEAD CHANGE    HEAD CHANGE    HEAD CHANGE 
   LAYER,ROW,COL  LAYER,ROW,COL  LAYER,ROW,COL  LAYER,ROW,COL  LAYER,ROW,COL
 ---------------------------------------------------------------------------
  1  0.3357      0 -0.2628      0  0.2010      0  0.1320      0 -0.8049E-01
   (  5, 21,  2)  (  5, 20,  1)  (  5, 19,  1)  (  5, 20,  1)  (  5, 19,  1)
  0 -0.4551E-01  0  0.4511E-01  0 -0.3119E-01  0  0.1394E-01  0  0.9171E-02
   (  5, 15,  1)  (  5, 18,  1)  (  5, 17,  1)  (  5, 17,  2)  (  5, 14,  3)
  0 -0.6938E-02  0  0.4952E-02  0 -0.3343E-02  0 -0.1903E-02  0 -0.1123E-02
   (  5, 19,  1)  (  5, 16,  3)  (  5, 15,  3)  (  5, 19,  3)  (  5,  6,  2)
  0 -0.7817E-03  0  0.5027E-03  0 -0.3057E-03  0  0.3802E-03  0 -0.2208E-03
   (  5, 17,  2)  (  5, 16,  2)  (  5,  6,  1)  (  5,  6,  1)  (  5,  6,  1)
  0  0.1651E-03  0 -0.1428E-03  0  0.6445E-04  0 -0.5000E-04  0  0.2450E-04
   (  5, 18,  2)  (  5, 18,  1)  (  5, 14,  1)  (  5, 13,  1)  (  5, 12,  1)
  0  0.1566E-04  0 -0.1142E-04  0  0.8241E-05  0 -0.5061E-05  0 -0.3275E-05
   (  5, 15,  4)  (  5, 12,  6)  (  5, 11,  6)  (  5, 10,  6)  (  5, 11,  1)
  1  0.8756E-03  0  0.6118E-03  0 -0.4063E-03  0  0.3140E-03  0 -0.2438E-03
   (  5, 18,  4)  (  5, 14,  1)  (  5, 14,  1)  (  5, 18,  3)  (  5, 17,  1)
  0  0.1364E-03  0 -0.1246E-03  0 -0.7330E-04  0  0.3797E-04  0 -0.2885E-04
   (  5, 20,  1)  (  5, 20,  1)  (  5, 15,  1)  (  5, 12,  5)  (  5, 21,  2)
  0  0.1695E-04  0 -0.9620E-05  0  0.6935E-05  0 -0.5263E-05  0  0.4565E-05
   (  5, 14,  2)  (  5, 14,  3)  (  5, 15,  4)  (  5, 20,  1)  (  5, 20,  1)
  0  0.2130E-05  0  0.1129E-05  0 -0.1077E-05  0  0.9136E-06  1 -0.1096E-05
   (  5, 17,  5)  (  5, 11,  8)  (  5, 18,  2)  (  5, 18,  1)  (  5, 16,  1)
  0  0.9295E-06  1 -0.7644E-06
   (  5, 18,  2)  (  5, 18,  1)

 MAXIMUM RESIDUAL FOR EACH ITERATION (1 INDICATES THE FIRST INNER ITERATION):

    RESIDUAL       RESIDUAL       RESIDUAL       RESIDUAL       RESIDUAL    
   LAYER,ROW,COL  LAYER,ROW,COL  LAYER,ROW,COL  LAYER,ROW,COL  LAYER,ROW,COL
 ---------------------------------------------------------------------------
  1 -0.6429E-02  0 -0.5050E-02  0 -0.3423E-02  0 -0.2091E-02  0 -0.1195E-02
   (  3, 17, 17)  (  3, 17, 17)  (  3, 17, 17)  (  3, 17, 17)  (  3, 20, 11)
  0 -0.6873E-03  0 -0.4224E-03  0 -0.3087E-03  0 -0.2397E-03  0 -0.1774E-03
   (  3, 20, 11)  (  3, 20, 11)  (  4, 16, 17)  (  4, 16, 17)  (  4, 16, 17)
  0 -0.1294E-03  0 -0.8843E-04  0 -0.5937E-04  0 -0.3913E-04  0 -0.2600E-04
   (  4, 16, 17)  (  4, 16, 17)  (  4, 16, 17)  (  4, 16, 17)  (  4, 16, 17)
  0 -0.1629E-04  0 -0.1015E-04  0  0.5970E-05  0  0.3417E-05  0  0.1754E-05
   (  4, 16, 17)  (  4, 16, 17)  (  3, 21,  6)  (  3, 21,  6)  (  3, 21,  6)
  0 -0.1095E-05  0 -0.9012E-06  0 -0.7143E-06  0 -0.5928E-06  0 -0.4695E-06
   (  3, 17, 17)  (  3, 17, 17)  (  3, 17, 17)  (  3, 17, 17)  (  3, 17, 17)
  0 -0.3432E-06  0 -0.2357E-06  0 -0.1563E-06  0 -0.1008E-06  0 -0.6767E-07
   (  3, 17, 17)  (  3, 17, 17)  (  3, 17, 17)  (  3, 17, 17)  (  3, 17, 17)
  1 -0.8350E-05  0 -0.4800E-05  0  0.3658E-05  0  0.2613E-05  0  0.1886E-05
   (  3, 18,  4)  (  3, 18,  4)  (  4, 18,  4)  (  4, 18,  4)  (  4, 18,  4)
  0  0.1213E-05  0  0.7251E-06  0  0.4956E-06  0  0.3873E-06  0  0.2819E-06
   (  4, 18,  4)  (  4, 18,  4)  (  3, 18,  4)  (  3, 18,  4)  (  3, 18,  4)
  0  0.1835E-06  0  0.1251E-06  0  0.8190E-07  0  0.6417E-07  0  0.4535E-07
   (  3, 18,  4)  (  3, 18,  4)  (  3, 18,  4)  (  4, 19,  3)  (  4, 19,  3)
  0 -0.2786E-07  0 -0.1803E-07  0 -0.1175E-07  0 -0.8738E-08  1 -0.9787E-08
   (  4, 21,  4)  (  4, 21,  4)  (  4, 21,  4)  (  4, 21,  4)  (  3, 19,  4)
  0 -0.7273E-08  1 -0.6719E-08
   (  3, 19,  4)  (  3, 19,  4)



 OUTPUT CONTROL FOR STRESS PERIOD   15   TIME STEP    1
    SAVE HEAD FOR ALL LAYERS
    SAVE DRAWDOWN FOR ALL LAYERS
    SAVE BUDGET
    PRINT BUDGET
 UBDSV1 SAVING "         STORAGE" ON UNIT   9 AT TIME STEP  1, STRESS PERIOD  15
 UBDSV2 SAVING "   CONSTANT HEAD" ON UNIT   9 AT TIME STEP  1, STRESS PERIOD  15
 UBDSV1 SAVING "FLOW RIGHT FACE " ON UNIT   9 AT TIME STEP  1, STRESS PERIOD  15
 UBDSV1 SAVING "FLOW FRONT FACE " ON UNIT   9 AT TIME STEP  1, STRESS PERIOD  15
 UBDSV1 SAVING "FLOW LOWER FACE " ON UNIT   9 AT TIME STEP  1, STRESS PERIOD  15
 UBDSV3 SAVING "        RECHARGE" ON UNIT   9 AT TIME STEP  1, STRESS PERIOD  15

 HEAD WILL BE SAVED ON UNIT   37 AT END OF TIME STEP    1, STRESS PERIOD   15

 DRAWDOWN WILL BE SAVED ON UNIT   38 AT END OF TIME STEP    1, STRESS PERIOD   15
1
  VOLUMETRIC BUDGET FOR ENTIRE MODEL AT END OF TIME STEP    1, STRESS PERIOD  15
  ------------------------------------------------------------------------------

     CUMULATIVE VOLUMES      L**3       RATES FOR THIS TIME STEP      L**3/T
     ------------------                 ------------------------

           IN:                                      IN:
           ---                                      ---
             STORAGE =        5837.8799               STORAGE =           0.0000
       CONSTANT HEAD =        4027.1326         CONSTANT HEAD =       2.8187E-03
            RECHARGE =         185.9235              RECHARGE =       9.7813E-05

            TOTAL IN =       10050.9365              TOTAL IN =       2.9165E-03

          OUT:                                     OUT:
          ----                                     ----
             STORAGE =         200.4753               STORAGE =       2.1890E-03
       CONSTANT HEAD =        9850.6777         CONSTANT HEAD =       7.2765E-04
            RECHARGE =           0.0000              RECHARGE =           0.0000

           TOTAL OUT =       10051.1533             TOTAL OUT =       2.9166E-03

            IN - OUT =          -0.2168              IN - OUT =      -1.3248E-07

 PERCENT DISCREPANCY =          -0.00     PERCENT DISCREPANCY =          -0.00






         TIME SUMMARY AT END OF TIME STEP    1 IN STRESS PERIOD   15
                    SECONDS     MINUTES      HOURS       DAYS        YEARS
                    -----------------------------------------------------------
   TIME STEP LENGTH  86400.      1440.0      24.000      1.0000     2.73785E-03
 STRESS PERIOD TIME  86400.      1440.0      24.000      1.0000     2.73785E-03
         TOTAL TIME 1.90080E+06  31680.      528.00      22.000     6.02327E-02
1
1
                            STRESS PERIOD NO.   16, LENGTH =   86400.00    
                            -----------------------------------------------

                              NUMBER OF TIME STEPS =     1

                               MULTIPLIER FOR DELT =     1.000

                            INITIAL TIME STEP SIZE =   86400.00    

 REUSING RECH FROM LAST STRESS PERIOD

 CHD NO.   LAYER   ROW   COL    START HEAD        END HEAD         IFACE           
 ----------------------------------------------------------------------------------
      1      4      1      1       109.3           109.3           0.000    
      2      5      1      1       109.3           109.3           0.000    
      3      4      1      2       109.3           109.3           0.000    
      4      5      1      2       109.3           109.3           0.000    
      5      4      1      3       109.3           109.3           0.000    
      6      5      1      3       109.3           109.3           0.000    
      7      4      1      4       109.3           109.3           0.000    
      8      5      1      4       109.3           109.3           0.000    
      9      4      1      5       109.3           109.3           0.000    
     10      5      1      5       109.3           109.3           0.000    
     11      4      1      6       109.3           109.3           0.000    
     12      5      1      6       109.3           109.3           0.000    
     13      4      1      7       109.3           109.3           0.000    
     14      5      1      7       109.3           109.3           0.000    
     15      4      1      8       109.3           109.3           0.000    
     16      5      1      8       109.3           109.3           0.000    
     17      4      1      9       109.3           109.3           0.000    
     18      5      1      9       109.3           109.3           0.000    
     19      4      1     10       109.3           109.3           0.000    
     20      5      1     10       109.3           109.3           0.000    
     21      4      1     11       109.3           109.3           0.000    
     22      5      1     11       109.3           109.3           0.000    
     23      4      1     12       109.3           109.3           0.000    
     24      5      1     12       109.3           109.3           0.000    
     25      4      1     13       109.3           109.3           0.000    
     26      5      1     13       109.3           109.3           0.000    
     27      4      1     14       109.3           109.3           0.000    
     28      5      1     14       109.3           109.3           0.000    
     29      4      1     15       109.3           109.3           0.000    
     30      5      1     15       109.3           109.3           0.000    
     31      4      1     16       109.3           109.3           0.000    
     32      5      1     16       109.3           109.3           0.000    
     33      4      1     17       109.3           109.3           0.000    
     34      5      1     17       109.3           109.3           0.000    
     35      4     17     17       109.1           109.1           0.000    
     36      5     17     17       109.1           109.1           0.000    
     37      4     18     17       109.1           109.1           0.000    
     38      5     18     17       109.1           109.1           0.000    
     39      4     18     16       109.1           109.1           0.000    
     40      5     18     16       109.1           109.1           0.000    
     41      4     19     16       109.1           109.1           0.000    
     42      5     19     16       109.1           109.1           0.000    
     43      4     19     15       109.1           109.1           0.000    
     44      5     19     15       109.1           109.1           0.000    
     45      4     20     15       109.1           109.1           0.000    
     46      5     20     15       109.1           109.1           0.000    
     47      4     20     14       109.1           109.1           0.000    
     48      5     20     14       109.1           109.1           0.000    
     49      4     20     13       109.1           109.1           0.000    
     50      5     20     13       109.1           109.1           0.000    
     51      4     20     12       109.1           109.1           0.000    
     52      5     20     12       109.1           109.1           0.000    
     53      4     20     11       109.1           109.1           0.000    
     54      5     20     11       109.1           109.1           0.000    
     55      4     21     11       109.1           109.1           0.000    
     56      5     21     11       109.1           109.1           0.000    
     57      4     21     10       109.1           109.1           0.000    
     58      5     21     10       109.1           109.1           0.000    
     59      4     21      9       109.1           109.1           0.000    
     60      5     21      9       109.1           109.1           0.000    
     61      4     21      8       109.1           109.1           0.000    
     62      5     21      8       109.1           109.1           0.000    
     63      4     21      7       109.1           109.1           0.000    
     64      5     21      7       109.1           109.1           0.000    
     65      4     21      6       109.1           109.1           0.000    
     66      5     21      6       109.1           109.1           0.000    
     67      4     21      5       109.1           109.1           0.000    
     68      5     21      5       109.1           109.1           0.000    
     69      4     22      5       109.1           109.1           0.000    
     70      5     22      5       109.1           109.1           0.000    
     71      4     22      4       109.1           109.1           0.000    
     72      5     22      4       109.1           109.1           0.000    
     73      4     22      3       109.1           109.1           0.000    
     74      5     22      3       109.1           109.1           0.000    
     75      4     22      2       109.1           109.1           0.000    
     76      5     22      2       109.1           109.1           0.000    
     77      4     22      1       109.1           109.1           0.000    
     78      5     22      1       109.1           109.1           0.000    


     78 TIME-VARIANT SPECIFIED-HEAD CELLS

 SOLVING FOR HEAD 


     3 CALLS TO PCG ROUTINE FOR TIME STEP   1 IN STRESS PERIOD   16
    43 TOTAL ITERATIONS

 MAXIMUM HEAD CHANGE FOR EACH ITERATION (1 INDICATES THE FIRST INNER ITERATION):

    HEAD CHANGE    HEAD CHANGE    HEAD CHANGE    HEAD CHANGE    HEAD CHANGE 
   LAYER,ROW,COL  LAYER,ROW,COL  LAYER,ROW,COL  LAYER,ROW,COL  LAYER,ROW,COL
 ---------------------------------------------------------------------------
  1 -0.1246      0  0.9409E-01  0 -0.5895E-01  0 -0.6002E-01  0  0.4882E-01
   (  5, 21,  2)  (  5, 20,  1)  (  5, 19,  1)  (  5, 20,  1)  (  5, 19,  1)
  0 -0.3567E-01  0  0.1573E-01  0 -0.9839E-02  0  0.6545E-02  0 -0.3718E-02
   (  5, 17,  1)  (  5, 16,  1)  (  5, 19,  1)  (  5, 18,  1)  (  5, 14,  3)
  0  0.2878E-02  0 -0.1882E-02  0  0.1187E-02  0  0.7526E-03  0  0.3995E-03
   (  5, 19,  1)  (  5, 16,  3)  (  5, 15,  3)  (  5, 19,  3)  (  5, 14,  5)
  0  0.3616E-03  0 -0.2187E-03  0  0.1681E-03  0 -0.1481E-03  0  0.7899E-04
   (  5, 17,  2)  (  5, 16,  2)  (  5, 16,  1)  (  5, 18,  1)  (  5, 17,  1)
  0  0.6570E-04  0 -0.4022E-04  0  0.2381E-04  0 -0.2104E-04  0 -0.1145E-04
   (  5,  6,  1)  (  5,  6,  1)  (  5, 18,  1)  (  5, 19,  2)  (  5,  6,  1)
  0  0.7343E-05  0  0.4189E-05  0  0.2891E-05  0  0.1851E-05  0  0.1499E-05
   (  5,  6,  1)  (  5,  8,  2)  (  5, 15,  4)  (  5, 13,  7)  (  5, 16,  4)
  1  0.6409E-04  0 -0.5361E-04  0 -0.4226E-04  0 -0.2518E-04  0 -0.1527E-04
   (  5, 18,  2)  (  5, 17,  1)  (  5, 19,  3)  (  5, 14,  1)  (  5, 20,  1)
  0  0.1234E-04  0 -0.9661E-05  0 -0.7334E-05  0 -0.3922E-05  0 -0.2078E-05
   (  5, 20,  3)  (  5, 19,  2)  (  5, 15,  1)  (  5, 13,  3)  (  5, 17,  2)
  0 -0.1393E-05  0  0.8836E-06  1  0.5071E-06
   (  5, 13,  5)  (  5, 12,  5)  (  5, 16,  4)

 MAXIMUM RESIDUAL FOR EACH ITERATION (1 INDICATES THE FIRST INNER ITERATION):

    RESIDUAL       RESIDUAL       RESIDUAL       RESIDUAL       RESIDUAL    
   LAYER,ROW,COL  LAYER,ROW,COL  LAYER,ROW,COL  LAYER,ROW,COL  LAYER,ROW,COL
 ---------------------------------------------------------------------------
  1  0.2555E-02  0  0.1982E-02  0  0.1335E-02  0  0.8404E-03  0  0.5269E-03
   (  3, 17, 17)  (  3, 17, 17)  (  3, 17, 17)  (  3, 17, 17)  (  3, 17, 17)
  0  0.3258E-03  0  0.1907E-03  0  0.1255E-03  0  0.9640E-04  0  0.7173E-04
   (  3, 20, 11)  (  3, 20, 11)  (  4, 16, 17)  (  4, 16, 17)  (  4, 16, 17)
  0  0.5215E-04  0  0.3557E-04  0  0.2392E-04  0  0.1558E-04  0  0.1026E-04
   (  4, 16, 17)  (  4, 16, 17)  (  4, 16, 17)  (  4, 16, 17)  (  4, 16, 17)
  0  0.6310E-05  0  0.3927E-05  0  0.2561E-05  0  0.1796E-05  0  0.9906E-06
   (  4, 16, 17)  (  4, 16, 17)  (  4, 16, 17)  (  4, 16, 17)  (  4, 16, 17)
  0  0.5331E-06  0  0.3681E-06  0  0.2941E-06  0  0.2396E-06  0  0.1906E-06
   (  4, 16, 17)  (  3, 17, 17)  (  3, 17, 17)  (  3, 17, 17)  (  3, 17, 17)
  0  0.1417E-06  0  0.9752E-07  0  0.6397E-07  0  0.4129E-07  0  0.2738E-07
   (  3, 17, 17)  (  3, 17, 17)  (  3, 17, 17)  (  3, 17, 17)  (  3, 17, 17)
  1  0.6093E-06  0 -0.3662E-06  0 -0.3178E-06  0 -0.2414E-06  0 -0.1776E-06
   (  3, 21,  1)  (  4, 21,  2)  (  4, 21,  2)  (  4, 21,  2)  (  4, 21,  2)
  0 -0.1342E-06  0  0.8437E-07  0  0.5573E-07  0  0.3632E-07  0  0.2788E-07
   (  4, 21,  2)  (  4, 20,  2)  (  4, 20,  2)  (  4, 20,  1)  (  4, 20,  1)
  0 -0.2541E-07  0 -0.1925E-07  1 -0.1629E-07
   (  4, 20,  3)  (  4, 20,  3)  (  4, 20,  3)



 OUTPUT CONTROL FOR STRESS PERIOD   16   TIME STEP    1
    SAVE HEAD FOR ALL LAYERS
    SAVE DRAWDOWN FOR ALL LAYERS
    SAVE BUDGET
    PRINT BUDGET
 UBDSV1 SAVING "         STORAGE" ON UNIT   9 AT TIME STEP  1, STRESS PERIOD  16
 UBDSV2 SAVING "   CONSTANT HEAD" ON UNIT   9 AT TIME STEP  1, STRESS PERIOD  16
 UBDSV1 SAVING "FLOW RIGHT FACE " ON UNIT   9 AT TIME STEP  1, STRESS PERIOD  16
 UBDSV1 SAVING "FLOW FRONT FACE " ON UNIT   9 AT TIME STEP  1, STRESS PERIOD  16
 UBDSV1 SAVING "FLOW LOWER FACE " ON UNIT   9 AT TIME STEP  1, STRESS PERIOD  16
 UBDSV3 SAVING "        RECHARGE" ON UNIT   9 AT TIME STEP  1, STRESS PERIOD  16

 HEAD WILL BE SAVED ON UNIT   37 AT END OF TIME STEP    1, STRESS PERIOD   16

 DRAWDOWN WILL BE SAVED ON UNIT   38 AT END OF TIME STEP    1, STRESS PERIOD   16
1
  VOLUMETRIC BUDGET FOR ENTIRE MODEL AT END OF TIME STEP    1, STRESS PERIOD  16
  ------------------------------------------------------------------------------

     CUMULATIVE VOLUMES      L**3       RATES FOR THIS TIME STEP      L**3/T
     ------------------                 ------------------------

           IN:                                      IN:
           ---                                      ---
             STORAGE =        5872.1914               STORAGE =       3.9712E-04
       CONSTANT HEAD =        4253.8198         CONSTANT HEAD =       2.6237E-03
            RECHARGE =         194.3746              RECHARGE =       9.7813E-05

            TOTAL IN =       10320.3867              TOTAL IN =       3.1186E-03

          OUT:                                     OUT:
          ----                                     ----
             STORAGE =         200.8492               STORAGE =       4.3272E-06
       CONSTANT HEAD =       10119.7617         CONSTANT HEAD =       3.1144E-03
            RECHARGE =           0.0000              RECHARGE =           0.0000

           TOTAL OUT =       10320.6113             TOTAL OUT =       3.1187E-03

            IN - OUT =          -0.2246              IN - OUT =      -9.5693E-08

 PERCENT DISCREPANCY =          -0.00     PERCENT DISCREPANCY =          -0.00






         TIME SUMMARY AT END OF TIME STEP    1 IN STRESS PERIOD   16
                    SECONDS     MINUTES      HOURS       DAYS        YEARS
                    -----------------------------------------------------------
   TIME STEP LENGTH  86400.      1440.0      24.000      1.0000     2.73785E-03
 STRESS PERIOD TIME  86400.      1440.0      24.000      1.0000     2.73785E-03
         TOTAL TIME 1.98720E+06  33120.      552.00      23.000     6.29706E-02
1
1
                            STRESS PERIOD NO.   17, LENGTH =   86400.00    
                            -----------------------------------------------

                              NUMBER OF TIME STEPS =     1

                               MULTIPLIER FOR DELT =     1.000

                            INITIAL TIME STEP SIZE =   86400.00    

 REUSING RECH FROM LAST STRESS PERIOD

 CHD NO.   LAYER   ROW   COL    START HEAD        END HEAD         IFACE           
 ----------------------------------------------------------------------------------
      1      4      1      1       109.3           109.4           0.000    
      2      5      1      1       109.3           109.4           0.000    
      3      4      1      2       109.3           109.4           0.000    
      4      5      1      2       109.3           109.4           0.000    
      5      4      1      3       109.3           109.4           0.000    
      6      5      1      3       109.3           109.4           0.000    
      7      4      1      4       109.3           109.4           0.000    
      8      5      1      4       109.3           109.4           0.000    
      9      4      1      5       109.3           109.4           0.000    
     10      5      1      5       109.3           109.4           0.000    
     11      4      1      6       109.3           109.4           0.000    
     12      5      1      6       109.3           109.4           0.000    
     13      4      1      7       109.3           109.4           0.000    
     14      5      1      7       109.3           109.4           0.000    
     15      4      1      8       109.3           109.4           0.000    
     16      5      1      8       109.3           109.4           0.000    
     17      4      1      9       109.3           109.4           0.000    
     18      5      1      9       109.3           109.4           0.000    
     19      4      1     10       109.3           109.4           0.000    
     20      5      1     10       109.3           109.4           0.000    
     21      4      1     11       109.3           109.4           0.000    
     22      5      1     11       109.3           109.4           0.000    
     23      4      1     12       109.3           109.4           0.000    
     24      5      1     12       109.3           109.4           0.000    
     25      4      1     13       109.3           109.4           0.000    
     26      5      1     13       109.3           109.4           0.000    
     27      4      1     14       109.3           109.4           0.000    
     28      5      1     14       109.3           109.4           0.000    
     29      4      1     15       109.3           109.4           0.000    
     30      5      1     15       109.3           109.4           0.000    
     31      4      1     16       109.3           109.4           0.000    
     32      5      1     16       109.3           109.4           0.000    
     33      4      1     17       109.3           109.4           0.000    
     34      5      1     17       109.3           109.4           0.000    
     35      4     17     17       109.1           109.2           0.000    
     36      5     17     17       109.1           109.2           0.000    
     37      4     18     17       109.1           109.2           0.000    
     38      5     18     17       109.1           109.2           0.000    
     39      4     18     16       109.1           109.2           0.000    
     40      5     18     16       109.1           109.2           0.000    
     41      4     19     16       109.1           109.2           0.000    
     42      5     19     16       109.1           109.2           0.000    
     43      4     19     15       109.1           109.2           0.000    
     44      5     19     15       109.1           109.2           0.000    
     45      4     20     15       109.1           109.2           0.000    
     46      5     20     15       109.1           109.2           0.000    
     47      4     20     14       109.1           109.2           0.000    
     48      5     20     14       109.1           109.2           0.000    
     49      4     20     13       109.1           109.2           0.000    
     50      5     20     13       109.1           109.2           0.000    
     51      4     20     12       109.1           109.2           0.000    
     52      5     20     12       109.1           109.2           0.000    
     53      4     20     11       109.1           109.2           0.000    
     54      5     20     11       109.1           109.2           0.000    
     55      4     21     11       109.1           109.2           0.000    
     56      5     21     11       109.1           109.2           0.000    
     57      4     21     10       109.1           109.2           0.000    
     58      5     21     10       109.1           109.2           0.000    
     59      4     21      9       109.1           109.2           0.000    
     60      5     21      9       109.1           109.2           0.000    
     61      4     21      8       109.1           109.2           0.000    
     62      5     21      8       109.1           109.2           0.000    
     63      4     21      7       109.1           109.2           0.000    
     64      5     21      7       109.1           109.2           0.000    
     65      4     21      6       109.1           109.2           0.000    
     66      5     21      6       109.1           109.2           0.000    
     67      4     21      5       109.1           109.2           0.000    
     68      5     21      5       109.1           109.2           0.000    
     69      4     22      5       109.1           109.2           0.000    
     70      5     22      5       109.1           109.2           0.000    
     71      4     22      4       109.1           109.2           0.000    
     72      5     22      4       109.1           109.2           0.000    
     73      4     22      3       109.1           109.2           0.000    
     74      5     22      3       109.1           109.2           0.000    
     75      4     22      2       109.1           109.2           0.000    
     76      5     22      2       109.1           109.2           0.000    
     77      4     22      1       109.1           109.2           0.000    
     78      5     22      1       109.1           109.2           0.000    


     78 TIME-VARIANT SPECIFIED-HEAD CELLS

 SOLVING FOR HEAD 


     3 CALLS TO PCG ROUTINE FOR TIME STEP   1 IN STRESS PERIOD   17
    50 TOTAL ITERATIONS

 MAXIMUM HEAD CHANGE FOR EACH ITERATION (1 INDICATES THE FIRST INNER ITERATION):

    HEAD CHANGE    HEAD CHANGE    HEAD CHANGE    HEAD CHANGE    HEAD CHANGE 
   LAYER,ROW,COL  LAYER,ROW,COL  LAYER,ROW,COL  LAYER,ROW,COL  LAYER,ROW,COL
 ---------------------------------------------------------------------------
  1  0.3060      0 -0.2399      0  0.1851      0  0.1160      0  0.7891E-01
   (  5, 21,  2)  (  5, 20,  1)  (  5, 19,  1)  (  5, 20,  1)  (  5, 16,  1)
  0 -0.5127E-01  0  0.4869E-01  0 -0.2415E-01  0  0.1096E-01  0  0.8207E-02
   (  5, 15,  1)  (  5, 18,  1)  (  5, 17,  1)  (  5, 11,  2)  (  5, 14,  3)
  0 -0.6413E-02  0  0.4656E-02  0 -0.3324E-02  0 -0.1615E-02  0  0.9532E-03
   (  5, 19,  1)  (  5, 16,  3)  (  5, 15,  3)  (  5, 19,  3)  (  5, 18,  2)
  0 -0.7429E-03  0  0.4538E-03  0  0.2683E-03  0  0.2881E-03  0  0.2407E-03
   (  5, 17,  2)  (  5, 16,  2)  (  5, 17,  2)  (  5,  6,  1)  (  5, 16,  1)
  0 -0.1276E-03  0  0.9443E-04  0  0.6305E-04  0 -0.4381E-04  0 -0.2722E-04
   (  5, 14,  1)  (  5,  6,  1)  (  5, 19,  2)  (  5, 19,  1)  (  5, 14,  2)
  0  0.1807E-04  0 -0.9321E-05  0 -0.6543E-05  0  0.5436E-05  0 -0.4329E-05
   (  5, 15,  4)  (  5, 12,  6)  (  5, 15,  4)  (  5, 17,  4)  (  5, 16,  4)
  1  0.1012E-02  0  0.5225E-03  0 -0.3807E-03  0 -0.3324E-03  0 -0.2170E-03
   (  5, 21,  3)  (  5, 13,  1)  (  5, 13,  1)  (  5, 21,  3)  (  5, 18,  1)
  0  0.1884E-03  0 -0.1041E-03  0  0.9203E-04  0 -0.5849E-04  0  0.4610E-04
   (  5, 17,  1)  (  5, 19,  2)  (  5, 19,  1)  (  5, 20,  2)  (  5, 20,  1)
  0 -0.2684E-04  0  0.1265E-04  0  0.9429E-05  0  0.4996E-05  0 -0.3397E-05
   (  5, 19,  1)  (  5, 13,  6)  (  5, 18,  1)  (  5, 19,  1)  (  5, 14,  4)
  0  0.2098E-05  0 -0.1463E-05  0  0.1146E-05  0  0.7022E-06  1 -0.8144E-06
   (  5, 13,  5)  (  5, 17,  2)  (  5, 16,  2)  (  5, 14,  1)  (  5, 16,  1)

 MAXIMUM RESIDUAL FOR EACH ITERATION (1 INDICATES THE FIRST INNER ITERATION):

    RESIDUAL       RESIDUAL       RESIDUAL       RESIDUAL       RESIDUAL    
   LAYER,ROW,COL  LAYER,ROW,COL  LAYER,ROW,COL  LAYER,ROW,COL  LAYER,ROW,COL
 ---------------------------------------------------------------------------
  1 -0.5797E-02  0 -0.4557E-02  0 -0.3100E-02  0 -0.1913E-02  0 -0.1104E-02
   (  3, 17, 17)  (  3, 17, 17)  (  3, 17, 17)  (  3, 17, 17)  (  3, 20, 11)
  0 -0.6713E-03  0 -0.4296E-03  0 -0.2801E-03  0 -0.2153E-03  0 -0.1592E-03
   (  3, 20, 11)  (  3, 20, 11)  (  4, 16, 17)  (  4, 16, 17)  (  4, 16, 17)
  0 -0.1167E-03  0 -0.8020E-04  0 -0.5420E-04  0 -0.3579E-04  0 -0.2375E-04
   (  4, 16, 17)  (  4, 16, 17)  (  4, 16, 17)  (  4, 16, 17)  (  4, 16, 17)
  0 -0.1489E-04  0 -0.9310E-05  0  0.5512E-05  0  0.3329E-05  0  0.2222E-05
   (  4, 16, 17)  (  4, 16, 17)  (  3, 21,  6)  (  3, 21,  6)  (  3, 21,  6)
  0 -0.1289E-05  0 -0.8493E-06  0 -0.6721E-06  0 -0.5474E-06  0 -0.4312E-06
   (  4, 16, 17)  (  3, 17, 17)  (  3, 17, 17)  (  3, 17, 17)  (  3, 17, 17)
  0 -0.3162E-06  0 -0.2170E-06  0 -0.1440E-06  0 -0.9575E-07  0 -0.6347E-07
   (  3, 17, 17)  (  3, 17, 17)  (  3, 17, 17)  (  3, 17, 17)  (  3, 17, 17)
  1 -0.9720E-05  0 -0.5407E-05  0  0.4340E-05  0  0.3559E-05  0  0.2930E-05
   (  3, 21,  3)  (  3, 21,  3)  (  4, 21,  3)  (  4, 21,  3)  (  4, 21,  3)
  0  0.2102E-05  0  0.1397E-05  0  0.6831E-06  0  0.3600E-06  0 -0.2681E-06
   (  4, 21,  3)  (  4, 21,  3)  (  4, 21,  3)  (  4, 21,  3)  (  4, 20,  3)
  0 -0.2801E-06  0 -0.2264E-06  0 -0.1371E-06  0 -0.6809E-07  0 -0.4492E-07
   (  4, 20,  3)  (  4, 20,  3)  (  4, 20,  3)  (  4, 21,  4)  (  4, 21,  4)
  0  0.3026E-07  0  0.2140E-07  0  0.1319E-07  0 -0.8133E-08  1 -0.8113E-08
   (  4, 21,  2)  (  4, 21,  2)  (  4, 21,  2)  (  4, 20,  5)  (  3, 16,  5)



 OUTPUT CONTROL FOR STRESS PERIOD   17   TIME STEP    1
    SAVE HEAD FOR ALL LAYERS
    SAVE DRAWDOWN FOR ALL LAYERS
    SAVE BUDGET
    PRINT BUDGET
 UBDSV1 SAVING "         STORAGE" ON UNIT   9 AT TIME STEP  1, STRESS PERIOD  17
 UBDSV2 SAVING "   CONSTANT HEAD" ON UNIT   9 AT TIME STEP  1, STRESS PERIOD  17
 UBDSV1 SAVING "FLOW RIGHT FACE " ON UNIT   9 AT TIME STEP  1, STRESS PERIOD  17
 UBDSV1 SAVING "FLOW FRONT FACE " ON UNIT   9 AT TIME STEP  1, STRESS PERIOD  17
 UBDSV1 SAVING "FLOW LOWER FACE " ON UNIT   9 AT TIME STEP  1, STRESS PERIOD  17
 UBDSV3 SAVING "        RECHARGE" ON UNIT   9 AT TIME STEP  1, STRESS PERIOD  17

 HEAD WILL BE SAVED ON UNIT   37 AT END OF TIME STEP    1, STRESS PERIOD   17

 DRAWDOWN WILL BE SAVED ON UNIT   38 AT END OF TIME STEP    1, STRESS PERIOD   17
1
  VOLUMETRIC BUDGET FOR ENTIRE MODEL AT END OF TIME STEP    1, STRESS PERIOD  17
  ------------------------------------------------------------------------------

     CUMULATIVE VOLUMES      L**3       RATES FOR THIS TIME STEP      L**3/T
     ------------------                 ------------------------

           IN:                                      IN:
           ---                                      ---
             STORAGE =        5872.1914               STORAGE =           0.0000
       CONSTANT HEAD =        4467.8140         CONSTANT HEAD =       2.4768E-03
            RECHARGE =         202.8257              RECHARGE =       9.7813E-05

            TOTAL IN =       10542.8311              TOTAL IN =       2.5746E-03

          OUT:                                     OUT:
          ----                                     ----
             STORAGE =         395.6935               STORAGE =       2.2551E-03
       CONSTANT HEAD =       10147.3721         CONSTANT HEAD =       3.1957E-04
            RECHARGE =           0.0000              RECHARGE =           0.0000

           TOTAL OUT =       10543.0654             TOTAL OUT =       2.5747E-03

            IN - OUT =          -0.2344              IN - OUT =      -1.1176E-07

 PERCENT DISCREPANCY =          -0.00     PERCENT DISCREPANCY =          -0.00






         TIME SUMMARY AT END OF TIME STEP    1 IN STRESS PERIOD   17
                    SECONDS     MINUTES      HOURS       DAYS        YEARS
                    -----------------------------------------------------------
   TIME STEP LENGTH  86400.      1440.0      24.000      1.0000     2.73785E-03
 STRESS PERIOD TIME  86400.      1440.0      24.000      1.0000     2.73785E-03
         TOTAL TIME 2.07360E+06  34560.      576.00      24.000     6.57084E-02
1
1
                            STRESS PERIOD NO.   18, LENGTH =   86400.00    
                            -----------------------------------------------

                              NUMBER OF TIME STEPS =     1

                               MULTIPLIER FOR DELT =     1.000

                            INITIAL TIME STEP SIZE =   86400.00    

 REUSING RECH FROM LAST STRESS PERIOD

 CHD NO.   LAYER   ROW   COL    START HEAD        END HEAD         IFACE           
 ----------------------------------------------------------------------------------
      1      4      1      1       109.4           109.4           0.000    
      2      5      1      1       109.4           109.4           0.000    
      3      4      1      2       109.4           109.4           0.000    
      4      5      1      2       109.4           109.4           0.000    
      5      4      1      3       109.4           109.4           0.000    
      6      5      1      3       109.4           109.4           0.000    
      7      4      1      4       109.4           109.4           0.000    
      8      5      1      4       109.4           109.4           0.000    
      9      4      1      5       109.4           109.4           0.000    
     10      5      1      5       109.4           109.4           0.000    
     11      4      1      6       109.4           109.4           0.000    
     12      5      1      6       109.4           109.4           0.000    
     13      4      1      7       109.4           109.4           0.000    
     14      5      1      7       109.4           109.4           0.000    
     15      4      1      8       109.4           109.4           0.000    
     16      5      1      8       109.4           109.4           0.000    
     17      4      1      9       109.4           109.4           0.000    
     18      5      1      9       109.4           109.4           0.000    
     19      4      1     10       109.4           109.4           0.000    
     20      5      1     10       109.4           109.4           0.000    
     21      4      1     11       109.4           109.4           0.000    
     22      5      1     11       109.4           109.4           0.000    
     23      4      1     12       109.4           109.4           0.000    
     24      5      1     12       109.4           109.4           0.000    
     25      4      1     13       109.4           109.4           0.000    
     26      5      1     13       109.4           109.4           0.000    
     27      4      1     14       109.4           109.4           0.000    
     28      5      1     14       109.4           109.4           0.000    
     29      4      1     15       109.4           109.4           0.000    
     30      5      1     15       109.4           109.4           0.000    
     31      4      1     16       109.4           109.4           0.000    
     32      5      1     16       109.4           109.4           0.000    
     33      4      1     17       109.4           109.4           0.000    
     34      5      1     17       109.4           109.4           0.000    
     35      4     17     17       109.2           109.2           0.000    
     36      5     17     17       109.2           109.2           0.000    
     37      4     18     17       109.2           109.2           0.000    
     38      5     18     17       109.2           109.2           0.000    
     39      4     18     16       109.2           109.2           0.000    
     40      5     18     16       109.2           109.2           0.000    
     41      4     19     16       109.2           109.2           0.000    
     42      5     19     16       109.2           109.2           0.000    
     43      4     19     15       109.2           109.2           0.000    
     44      5     19     15       109.2           109.2           0.000    
     45      4     20     15       109.2           109.2           0.000    
     46      5     20     15       109.2           109.2           0.000    
     47      4     20     14       109.2           109.2           0.000    
     48      5     20     14       109.2           109.2           0.000    
     49      4     20     13       109.2           109.2           0.000    
     50      5     20     13       109.2           109.2           0.000    
     51      4     20     12       109.2           109.2           0.000    
     52      5     20     12       109.2           109.2           0.000    
     53      4     20     11       109.2           109.2           0.000    
     54      5     20     11       109.2           109.2           0.000    
     55      4     21     11       109.2           109.2           0.000    
     56      5     21     11       109.2           109.2           0.000    
     57      4     21     10       109.2           109.2           0.000    
     58      5     21     10       109.2           109.2           0.000    
     59      4     21      9       109.2           109.2           0.000    
     60      5     21      9       109.2           109.2           0.000    
     61      4     21      8       109.2           109.2           0.000    
     62      5     21      8       109.2           109.2           0.000    
     63      4     21      7       109.2           109.2           0.000    
     64      5     21      7       109.2           109.2           0.000    
     65      4     21      6       109.2           109.2           0.000    
     66      5     21      6       109.2           109.2           0.000    
     67      4     21      5       109.2           109.2           0.000    
     68      5     21      5       109.2           109.2           0.000    
     69      4     22      5       109.2           109.2           0.000    
     70      5     22      5       109.2           109.2           0.000    
     71      4     22      4       109.2           109.2           0.000    
     72      5     22      4       109.2           109.2           0.000    
     73      4     22      3       109.2           109.2           0.000    
     74      5     22      3       109.2           109.2           0.000    
     75      4     22      2       109.2           109.2           0.000    
     76      5     22      2       109.2           109.2           0.000    
     77      4     22      1       109.2           109.2           0.000    
     78      5     22      1       109.2           109.2           0.000    


     78 TIME-VARIANT SPECIFIED-HEAD CELLS

 SOLVING FOR HEAD 


     4 CALLS TO PCG ROUTINE FOR TIME STEP   1 IN STRESS PERIOD   18
    51 TOTAL ITERATIONS

 MAXIMUM HEAD CHANGE FOR EACH ITERATION (1 INDICATES THE FIRST INNER ITERATION):

    HEAD CHANGE    HEAD CHANGE    HEAD CHANGE    HEAD CHANGE    HEAD CHANGE 
   LAYER,ROW,COL  LAYER,ROW,COL  LAYER,ROW,COL  LAYER,ROW,COL  LAYER,ROW,COL
 ---------------------------------------------------------------------------
  1  0.1518      0 -0.1239      0  0.1026      0 -0.7265E-01  0  0.4636E-01
   (  5, 21,  2)  (  5, 20,  1)  (  5, 18,  1)  (  5, 17,  1)  (  5, 15,  1)
  0 -0.2795E-01  0  0.2038E-01  0  0.8837E-02  0  0.5885E-02  0 -0.3809E-02
   (  5, 19,  1)  (  5, 18,  1)  (  5, 19,  1)  (  5, 11,  2)  (  5, 19,  1)
  0  0.2744E-02  0  0.2065E-02  0 -0.1704E-02  0  0.7626E-03  0 -0.4298E-03
   (  5,  9,  1)  (  5, 16,  3)  (  5, 15,  3)  (  5, 16,  5)  (  5, 14,  4)
  0  0.2749E-03  0  0.2176E-03  0 -0.1491E-03  0  0.1705E-03  0 -0.1029E-03
   (  5,  9,  3)  (  5,  7,  1)  (  5, 18,  2)  (  5, 15,  1)  (  5, 17,  1)
  0 -0.7328E-04  0  0.5230E-04  0  0.3597E-04  0 -0.2444E-04  0 -0.1336E-04
   (  5,  6,  1)  (  5,  6,  1)  (  5, 19,  2)  (  5, 19,  1)  (  5, 14,  2)
  0 -0.8388E-05  0 -0.6249E-05  0  0.4805E-05  0 -0.2083E-05  0 -0.1588E-05
   (  5,  6,  1)  (  5, 17,  5)  (  5,  8,  1)  (  5, 15,  4)  (  5, 19,  3)
  1  0.5077E-03  0  0.5432E-03  0  0.3948E-03  0 -0.2414E-03  0  0.1997E-03
   (  5, 10,  1)  (  3,  9,  3)  (  5, 13,  1)  (  5, 15,  1)  (  5, 16,  1)
  0 -0.1298E-03  0  0.1049E-03  0 -0.8500E-04  0  0.6079E-04  0 -0.3745E-04
   (  5, 17,  1)  (  5, 18,  1)  (  5, 19,  1)  (  5, 19,  1)  (  5, 20,  1)
  0 -0.1616E-04  0 -0.1356E-04  0  0.6558E-05  0  0.5336E-05  0  0.3018E-05
   (  5,  8,  1)  (  5, 14,  5)  (  5, 13,  5)  (  5, 20,  2)  (  5, 18,  3)
  0 -0.3115E-05  0  0.1894E-05  0 -0.8328E-06  1  0.1252E-05  0 -0.7151E-06
   (  5, 19,  3)  (  5, 19,  2)  (  5, 15,  1)  (  5, 17,  1)  (  5, 16,  1)
  1 -0.5247E-06
   (  5, 16,  4)

 MAXIMUM RESIDUAL FOR EACH ITERATION (1 INDICATES THE FIRST INNER ITERATION):

    RESIDUAL       RESIDUAL       RESIDUAL       RESIDUAL       RESIDUAL    
   LAYER,ROW,COL  LAYER,ROW,COL  LAYER,ROW,COL  LAYER,ROW,COL  LAYER,ROW,COL
 ---------------------------------------------------------------------------
  1 -0.2318E-02  0 -0.1800E-02  0 -0.1215E-02  0 -0.7740E-03  0 -0.4758E-03
   (  3, 17, 17)  (  3, 17, 17)  (  3, 17, 17)  (  3, 17, 17)  (  3, 17, 17)
  0 -0.2714E-03  0 -0.1423E-03  0  0.1136E-03  0  0.8807E-04  0 -0.6188E-04
   (  3, 20, 11)  (  3, 20, 11)  (  4, 21,  2)  (  4, 21,  2)  (  4, 16, 17)
  0 -0.4422E-04  0 -0.2918E-04  0 -0.1907E-04  0  0.1330E-04  0  0.9651E-05
   (  4, 16, 17)  (  4, 16, 17)  (  4, 16, 17)  (  3, 21,  6)  (  3, 21,  6)
  0  0.6734E-05  0  0.4531E-05  0  0.2836E-05  0  0.2051E-05  0  0.1174E-05
   (  3, 21,  6)  (  3, 21,  6)  (  3, 21,  6)  (  3, 21,  6)  (  3, 21,  6)
  0  0.5676E-06  0 -0.3755E-06  0 -0.2656E-06  0 -0.2022E-06  0 -0.1369E-06
   (  3, 21,  5)  (  5, 15, 17)  (  5, 15, 17)  (  5, 15, 17)  (  5, 15, 17)
  0 -0.8407E-07  0 -0.5120E-07  0 -0.3873E-07  0 -0.2896E-07  0 -0.1986E-07
   (  5, 15, 17)  (  5, 16, 17)  (  3, 21,  6)  (  3, 21,  6)  (  3, 21,  6)
  1 -0.4630E-05  0 -0.3101E-05  0 -0.2024E-05  0 -0.1322E-05  0 -0.8616E-06
   (  3,  9,  3)  (  3,  9,  3)  (  3, 10,  1)  (  3, 10,  1)  (  3, 10,  1)
  0  0.6234E-06  0  0.4608E-06  0  0.2873E-06  0 -0.2240E-06  0 -0.2169E-06
   (  4, 10,  5)  (  4, 14,  4)  (  4, 18,  3)  (  4, 21,  1)  (  4,  9,  2)
  0  0.1412E-06  0  0.1053E-06  0 -0.8359E-07  0 -0.5231E-07  0 -0.2488E-07
   (  4, 21,  2)  (  4, 21,  2)  (  4,  9,  2)  (  4,  9,  2)  (  4,  8,  3)
  0 -0.1859E-07  0 -0.1416E-07  0 -0.9678E-08  1 -0.9180E-08  0 -0.6220E-08
   (  4, 20,  2)  (  4, 20,  2)  (  4, 21,  3)  (  4, 21,  3)  (  4,  9,  1)
  1 -0.5296E-08
   (  4,  9,  1)



 OUTPUT CONTROL FOR STRESS PERIOD   18   TIME STEP    1
    SAVE HEAD FOR ALL LAYERS
    SAVE DRAWDOWN FOR ALL LAYERS
    SAVE BUDGET
    PRINT BUDGET
 UBDSV1 SAVING "         STORAGE" ON UNIT   9 AT TIME STEP  1, STRESS PERIOD  18
 UBDSV2 SAVING "   CONSTANT HEAD" ON UNIT   9 AT TIME STEP  1, STRESS PERIOD  18
 UBDSV1 SAVING "FLOW RIGHT FACE " ON UNIT   9 AT TIME STEP  1, STRESS PERIOD  18
 UBDSV1 SAVING "FLOW FRONT FACE " ON UNIT   9 AT TIME STEP  1, STRESS PERIOD  18
 UBDSV1 SAVING "FLOW LOWER FACE " ON UNIT   9 AT TIME STEP  1, STRESS PERIOD  18
 UBDSV3 SAVING "        RECHARGE" ON UNIT   9 AT TIME STEP  1, STRESS PERIOD  18

 HEAD WILL BE SAVED ON UNIT   37 AT END OF TIME STEP    1, STRESS PERIOD   18

 DRAWDOWN WILL BE SAVED ON UNIT   38 AT END OF TIME STEP    1, STRESS PERIOD   18
1
  VOLUMETRIC BUDGET FOR ENTIRE MODEL AT END OF TIME STEP    1, STRESS PERIOD  18
  ------------------------------------------------------------------------------

     CUMULATIVE VOLUMES      L**3       RATES FOR THIS TIME STEP      L**3/T
     ------------------                 ------------------------

           IN:                                      IN:
           ---                                      ---
             STORAGE =        5872.1914               STORAGE =           0.0000
       CONSTANT HEAD =        4710.8506         CONSTANT HEAD =       2.8129E-03
            RECHARGE =         211.2767              RECHARGE =       9.7813E-05

            TOTAL IN =       10794.3184              TOTAL IN =       2.9107E-03

          OUT:                                     OUT:
          ----                                     ----
             STORAGE =         592.0433               STORAGE =       2.2726E-03
       CONSTANT HEAD =       10202.5166         CONSTANT HEAD =       6.3825E-04
            RECHARGE =           0.0000              RECHARGE =           0.0000

           TOTAL OUT =       10794.5596             TOTAL OUT =       2.9108E-03

            IN - OUT =          -0.2412              IN - OUT =      -8.1956E-08

 PERCENT DISCREPANCY =          -0.00     PERCENT DISCREPANCY =          -0.00






         TIME SUMMARY AT END OF TIME STEP    1 IN STRESS PERIOD   18
                    SECONDS     MINUTES      HOURS       DAYS        YEARS
                    -----------------------------------------------------------
   TIME STEP LENGTH  86400.      1440.0      24.000      1.0000     2.73785E-03
 STRESS PERIOD TIME  86400.      1440.0      24.000      1.0000     2.73785E-03
         TOTAL TIME 2.16000E+06  36000.      600.00      25.000     6.84463E-02
1
1
                            STRESS PERIOD NO.   19, LENGTH =   259200.0    
                            -----------------------------------------------

                              NUMBER OF TIME STEPS =     3

                               MULTIPLIER FOR DELT =     1.000

                            INITIAL TIME STEP SIZE =   86400.00    

 REUSING RECH FROM LAST STRESS PERIOD

 CHD NO.   LAYER   ROW   COL    START HEAD        END HEAD         IFACE           
 ----------------------------------------------------------------------------------
      1      4      1      1       109.4           109.4           0.000    
      2      5      1      1       109.4           109.4           0.000    
      3      4      1      2       109.4           109.4           0.000    
      4      5      1      2       109.4           109.4           0.000    
      5      4      1      3       109.4           109.4           0.000    
      6      5      1      3       109.4           109.4           0.000    
      7      4      1      4       109.4           109.4           0.000    
      8      5      1      4       109.4           109.4           0.000    
      9      4      1      5       109.4           109.4           0.000    
     10      5      1      5       109.4           109.4           0.000    
     11      4      1      6       109.4           109.4           0.000    
     12      5      1      6       109.4           109.4           0.000    
     13      4      1      7       109.4           109.4           0.000    
     14      5      1      7       109.4           109.4           0.000    
     15      4      1      8       109.4           109.4           0.000    
     16      5      1      8       109.4           109.4           0.000    
     17      4      1      9       109.4           109.4           0.000    
     18      5      1      9       109.4           109.4           0.000    
     19      4      1     10       109.4           109.4           0.000    
     20      5      1     10       109.4           109.4           0.000    
     21      4      1     11       109.4           109.4           0.000    
     22      5      1     11       109.4           109.4           0.000    
     23      4      1     12       109.4           109.4           0.000    
     24      5      1     12       109.4           109.4           0.000    
     25      4      1     13       109.4           109.4           0.000    
     26      5      1     13       109.4           109.4           0.000    
     27      4      1     14       109.4           109.4           0.000    
     28      5      1     14       109.4           109.4           0.000    
     29      4      1     15       109.4           109.4           0.000    
     30      5      1     15       109.4           109.4           0.000    
     31      4      1     16       109.4           109.4           0.000    
     32      5      1     16       109.4           109.4           0.000    
     33      4      1     17       109.4           109.4           0.000    
     34      5      1     17       109.4           109.4           0.000    
     35      4     17     17       109.2           109.2           0.000    
     36      5     17     17       109.2           109.2           0.000    
     37      4     18     17       109.2           109.2           0.000    
     38      5     18     17       109.2           109.2           0.000    
     39      4     18     16       109.2           109.2           0.000    
     40      5     18     16       109.2           109.2           0.000    
     41      4     19     16       109.2           109.2           0.000    
     42      5     19     16       109.2           109.2           0.000    
     43      4     19     15       109.2           109.2           0.000    
     44      5     19     15       109.2           109.2           0.000    
     45      4     20     15       109.2           109.2           0.000    
     46      5     20     15       109.2           109.2           0.000    
     47      4     20     14       109.2           109.2           0.000    
     48      5     20     14       109.2           109.2           0.000    
     49      4     20     13       109.2           109.2           0.000    
     50      5     20     13       109.2           109.2           0.000    
     51      4     20     12       109.2           109.2           0.000    
     52      5     20     12       109.2           109.2           0.000    
     53      4     20     11       109.2           109.2           0.000    
     54      5     20     11       109.2           109.2           0.000    
     55      4     21     11       109.2           109.2           0.000    
     56      5     21     11       109.2           109.2           0.000    
     57      4     21     10       109.2           109.2           0.000    
     58      5     21     10       109.2           109.2           0.000    
     59      4     21      9       109.2           109.2           0.000    
     60      5     21      9       109.2           109.2           0.000    
     61      4     21      8       109.2           109.2           0.000    
     62      5     21      8       109.2           109.2           0.000    
     63      4     21      7       109.2           109.2           0.000    
     64      5     21      7       109.2           109.2           0.000    
     65      4     21      6       109.2           109.2           0.000    
     66      5     21      6       109.2           109.2           0.000    
     67      4     21      5       109.2           109.2           0.000    
     68      5     21      5       109.2           109.2           0.000    
     69      4     22      5       109.2           109.2           0.000    
     70      5     22      5       109.2           109.2           0.000    
     71      4     22      4       109.2           109.2           0.000    
     72      5     22      4       109.2           109.2           0.000    
     73      4     22      3       109.2           109.2           0.000    
     74      5     22      3       109.2           109.2           0.000    
     75      4     22      2       109.2           109.2           0.000    
     76      5     22      2       109.2           109.2           0.000    
     77      4     22      1       109.2           109.2           0.000    
     78      5     22      1       109.2           109.2           0.000    


     78 TIME-VARIANT SPECIFIED-HEAD CELLS

 SOLVING FOR HEAD 


     3 CALLS TO PCG ROUTINE FOR TIME STEP   1 IN STRESS PERIOD   19
    44 TOTAL ITERATIONS

 MAXIMUM HEAD CHANGE FOR EACH ITERATION (1 INDICATES THE FIRST INNER ITERATION):

    HEAD CHANGE    HEAD CHANGE    HEAD CHANGE    HEAD CHANGE    HEAD CHANGE 
   LAYER,ROW,COL  LAYER,ROW,COL  LAYER,ROW,COL  LAYER,ROW,COL  LAYER,ROW,COL
 ---------------------------------------------------------------------------
  1 -0.3643E-01  0  0.2296E-01  0  0.1939E-01  0 -0.2481E-01  0  0.2158E-01
   (  5, 21,  2)  (  5, 20,  1)  (  5, 15,  1)  (  5, 20,  1)  (  5, 18,  1)
  0 -0.1129E-01  0  0.5332E-02  0  0.2909E-02  0  0.2300E-02  0 -0.1559E-02
   (  5, 17,  1)  (  5, 16,  1)  (  5, 13,  3)  (  5, 18,  1)  (  5, 14,  3)
  0  0.1224E-02  0 -0.6985E-03  0  0.4415E-03  0  0.3551E-03  0  0.1876E-03
   (  5, 19,  1)  (  5, 16,  3)  (  5, 20,  1)  (  5, 19,  3)  (  5, 14,  5)
  0  0.1560E-03  0  0.7534E-04  0  0.5457E-04  0 -0.4116E-04  0  0.4156E-04
   (  5, 17,  2)  (  5, 12,  5)  (  5,  6,  1)  (  5, 15,  1)  (  5, 17,  1)
  0  0.3165E-04  0 -0.1945E-04  0  0.8293E-05  0 -0.5359E-05  0 -0.5061E-05
   (  5,  6,  1)  (  5,  6,  1)  (  5,  6,  1)  (  5,  7,  1)  (  5, 18,  1)
  0  0.3052E-05  0  0.1668E-05  0 -0.1376E-05  0  0.8628E-06  1  0.5254E-04
   (  5, 19,  1)  (  5,  8,  3)  (  5, 19,  3)  (  5,  6,  2)  (  3,  9,  5)
  0  0.5319E-04  0  0.3991E-04  0  0.2556E-04  0  0.1730E-04  0 -0.1351E-04
   (  3,  9,  5)  (  5, 18,  1)  (  3,  9,  5)  (  5, 18,  1)  (  5, 14,  1)
  0  0.1054E-04  0  0.6725E-05  0 -0.3148E-05  0 -0.2286E-05  0 -0.1993E-05
   (  5, 15,  1)  (  5, 19,  1)  (  5, 20,  1)  (  5, 18,  4)  (  5, 17,  1)
  0 -0.1335E-05  0 -0.1165E-05  0  0.8532E-06  1 -0.4623E-06
   (  5, 20,  1)  (  5, 18,  3)  (  5, 19,  3)  (  5, 20,  3)

 MAXIMUM RESIDUAL FOR EACH ITERATION (1 INDICATES THE FIRST INNER ITERATION):

    RESIDUAL       RESIDUAL       RESIDUAL       RESIDUAL       RESIDUAL    
   LAYER,ROW,COL  LAYER,ROW,COL  LAYER,ROW,COL  LAYER,ROW,COL  LAYER,ROW,COL
 ---------------------------------------------------------------------------
  1  0.8411E-03  0  0.6795E-03  0  0.4904E-03  0  0.3045E-03  0  0.1854E-03
   (  3, 17, 17)  (  3, 17, 17)  (  3, 17, 17)  (  3, 17, 17)  (  3, 20, 11)
  0  0.1059E-03  0  0.6023E-04  0  0.4405E-04  0  0.3484E-04  0  0.2635E-04
   (  3, 20, 11)  (  3, 20, 11)  (  4, 16, 17)  (  4, 16, 17)  (  4, 16, 17)
  0  0.1928E-04  0  0.1332E-04  0  0.9188E-05  0  0.5980E-05  0  0.3873E-05
   (  4, 16, 17)  (  4, 16, 17)  (  4, 16, 17)  (  4, 16, 17)  (  4, 16, 17)
  0  0.2332E-05  0  0.1399E-05  0 -0.8352E-06  0 -0.5524E-06  0 -0.3870E-06
   (  4, 16, 17)  (  4, 16, 17)  (  3, 21,  6)  (  3, 21,  6)  (  3, 21,  6)
  0 -0.2473E-06  0 -0.1408E-06  0 -0.8198E-07  0  0.6115E-07  0  0.5224E-07
   (  3, 21,  5)  (  3, 21,  5)  (  3, 21,  5)  (  3, 17, 17)  (  3, 17, 17)
  0  0.4292E-07  0  0.3223E-07  0  0.2282E-07  0  0.1567E-07  1 -0.1009E-05
   (  3, 17, 17)  (  3, 17, 17)  (  3, 17, 17)  (  3, 17, 17)  (  3,  9,  5)
  0 -0.6872E-06  0 -0.4643E-06  0 -0.2394E-06  0  0.1571E-06  0  0.1119E-06
   (  3,  9,  5)  (  3,  9,  5)  (  3,  9,  5)  (  4,  9,  5)  (  4,  9,  5)
  0  0.7155E-07  0  0.4824E-07  0  0.3342E-07  0 -0.2867E-07  0 -0.2403E-07
   (  4,  9,  5)  (  4,  9,  5)  (  4,  9,  5)  (  4,  8,  5)  (  4,  8,  5)
  0 -0.1909E-07  0 -0.1356E-07  0 -0.9346E-08  1 -0.7978E-08
   (  4,  8,  5)  (  4,  8,  5)  (  4,  8,  5)  (  4,  8,  5)



 OUTPUT CONTROL FOR STRESS PERIOD   19   TIME STEP    1
    SAVE HEAD FOR ALL LAYERS
    SAVE DRAWDOWN FOR ALL LAYERS
    SAVE BUDGET
    PRINT BUDGET
 UBDSV1 SAVING "         STORAGE" ON UNIT   9 AT TIME STEP  1, STRESS PERIOD  19
 UBDSV2 SAVING "   CONSTANT HEAD" ON UNIT   9 AT TIME STEP  1, STRESS PERIOD  19
 UBDSV1 SAVING "FLOW RIGHT FACE " ON UNIT   9 AT TIME STEP  1, STRESS PERIOD  19
 UBDSV1 SAVING "FLOW FRONT FACE " ON UNIT   9 AT TIME STEP  1, STRESS PERIOD  19
 UBDSV1 SAVING "FLOW LOWER FACE " ON UNIT   9 AT TIME STEP  1, STRESS PERIOD  19
 UBDSV3 SAVING "        RECHARGE" ON UNIT   9 AT TIME STEP  1, STRESS PERIOD  19

 HEAD WILL BE SAVED ON UNIT   37 AT END OF TIME STEP    1, STRESS PERIOD   19

 DRAWDOWN WILL BE SAVED ON UNIT   38 AT END OF TIME STEP    1, STRESS PERIOD   19
1
  VOLUMETRIC BUDGET FOR ENTIRE MODEL AT END OF TIME STEP    1, STRESS PERIOD  19
  ------------------------------------------------------------------------------

     CUMULATIVE VOLUMES      L**3       RATES FOR THIS TIME STEP      L**3/T
     ------------------                 ------------------------

           IN:                                      IN:
           ---                                      ---
             STORAGE =        5875.4482               STORAGE =       3.7693E-05
       CONSTANT HEAD =        4904.0781         CONSTANT HEAD =       2.2364E-03
            RECHARGE =         219.7278              RECHARGE =       9.7813E-05

            TOTAL IN =       10999.2539              TOTAL IN =       2.3719E-03

          OUT:                                     OUT:
          ----                                     ----
             STORAGE =         629.6620               STORAGE =       4.3540E-04
       CONSTANT HEAD =       10369.8408         CONSTANT HEAD =       1.9366E-03
            RECHARGE =           0.0000              RECHARGE =           0.0000

           TOTAL OUT =       10999.5029             TOTAL OUT =       2.3720E-03

            IN - OUT =          -0.2490              IN - OUT =      -8.4518E-08

 PERCENT DISCREPANCY =          -0.00     PERCENT DISCREPANCY =          -0.00






         TIME SUMMARY AT END OF TIME STEP    1 IN STRESS PERIOD   19
                    SECONDS     MINUTES      HOURS       DAYS        YEARS
                    -----------------------------------------------------------
   TIME STEP LENGTH  86400.      1440.0      24.000      1.0000     2.73785E-03
 STRESS PERIOD TIME  86400.      1440.0      24.000      1.0000     2.73785E-03
         TOTAL TIME 2.24640E+06  37440.      624.00      26.000     7.11841E-02
1

 SOLVING FOR HEAD 
     3 CALLS TO PCG ROUTINE FOR TIME STEP   2 IN STRESS PERIOD   19
    41 TOTAL ITERATIONS

 MAXIMUM HEAD CHANGE FOR EACH ITERATION (1 INDICATES THE FIRST INNER ITERATION):

    HEAD CHANGE    HEAD CHANGE    HEAD CHANGE    HEAD CHANGE    HEAD CHANGE 
   LAYER,ROW,COL  LAYER,ROW,COL  LAYER,ROW,COL  LAYER,ROW,COL  LAYER,ROW,COL
 ---------------------------------------------------------------------------
  1 -0.4121E-01  0  0.3142E-01  0 -0.2287E-01  0 -0.1852E-01  0  0.1410E-01
   (  5, 21,  2)  (  5, 20,  1)  (  5, 19,  1)  (  5, 20,  1)  (  5, 19,  1)
  0 -0.9881E-02  0  0.6707E-02  0 -0.3618E-02  0  0.2284E-02  0 -0.1358E-02
   (  5, 17,  1)  (  5, 16,  1)  (  5, 19,  1)  (  5, 17,  1)  (  5, 14,  4)
  0  0.1066E-02  0 -0.7146E-03  0  0.5765E-03  0  0.2675E-03  0 -0.1864E-03
   (  5, 19,  1)  (  5, 16,  3)  (  5, 15,  3)  (  5, 18,  1)  (  5, 18,  2)
  0  0.1385E-03  0 -0.8432E-04  0  0.5016E-04  0 -0.4219E-04  0  0.2385E-04
   (  5, 17,  2)  (  5, 16,  3)  (  5, 15,  3)  (  5,  6,  1)  (  5,  6,  1)
  0  0.1694E-04  0 -0.1897E-04  0  0.9944E-05  0 -0.8310E-05  0  0.3952E-05
   (  5, 18,  1)  (  5, 17,  1)  (  5, 15,  1)  (  5, 14,  1)  (  5, 12,  1)
  0  0.3252E-05  0  0.1612E-05  0 -0.1332E-05  0  0.8082E-06  1  0.1320E-04
   (  5,  7,  1)  (  5, 14,  4)  (  5,  8,  1)  (  5,  8,  1)  (  5, 16,  1)
  0 -0.1171E-04  0  0.1046E-04  0 -0.8640E-05  0  0.5710E-05  0 -0.3282E-05
   (  5, 17,  1)  (  5, 21,  1)  (  5, 20,  1)  (  5, 19,  1)  (  5, 21,  1)
  0  0.1775E-05  0 -0.1517E-05  0  0.1045E-05  0 -0.1092E-05  0  0.5230E-06
   (  5, 20,  1)  (  5, 19,  1)  (  5, 18,  1)  (  5, 20,  1)  (  5, 19,  1)
  1 -0.2706E-06
   (  5, 19,  1)

 MAXIMUM RESIDUAL FOR EACH ITERATION (1 INDICATES THE FIRST INNER ITERATION):

    RESIDUAL       RESIDUAL       RESIDUAL       RESIDUAL       RESIDUAL    
   LAYER,ROW,COL  LAYER,ROW,COL  LAYER,ROW,COL  LAYER,ROW,COL  LAYER,ROW,COL
 ---------------------------------------------------------------------------
  1  0.8584E-03  0  0.6848E-03  0  0.4752E-03  0  0.2943E-03  0  0.1750E-03
   (  3, 17, 17)  (  3, 17, 17)  (  3, 17, 17)  (  3, 17, 17)  (  3, 20, 11)
  0  0.1106E-03  0  0.7107E-04  0  0.4454E-04  0  0.3469E-04  0  0.2598E-04
   (  3, 20, 11)  (  3, 20, 11)  (  3, 20, 11)  (  4, 16, 17)  (  4, 16, 17)
  0  0.1933E-04  0  0.1331E-04  0  0.9035E-05  0  0.5951E-05  0  0.4008E-05
   (  4, 16, 17)  (  4, 16, 17)  (  4, 16, 17)  (  4, 16, 17)  (  4, 16, 17)
  0  0.2586E-05  0  0.1646E-05  0  0.9902E-06  0 -0.5807E-06  0 -0.2952E-06
   (  4, 16, 17)  (  4, 16, 17)  (  4, 16, 17)  (  3, 21,  6)  (  3, 21,  6)
  0 -0.1638E-06  0  0.1303E-06  0  0.1011E-06  0  0.8448E-07  0  0.6828E-07
   (  3, 21,  5)  (  3, 17, 17)  (  3, 17, 17)  (  3, 17, 17)  (  3, 17, 17)
  0  0.5294E-07  0  0.3832E-07  0  0.2607E-07  0  0.1674E-07  1  0.2049E-06
   (  3, 17, 17)  (  3, 17, 17)  (  3, 17, 17)  (  3, 17, 17)  (  3, 21,  1)
  0  0.1273E-06  0 -0.9518E-07  0 -0.5866E-07  0 -0.4490E-07  0 -0.2760E-07
   (  3, 21,  1)  (  4, 21,  2)  (  4, 21,  2)  (  4, 21,  2)  (  4, 21,  2)
  0  0.1833E-07  0  0.1450E-07  0  0.1076E-07  0  0.8724E-08  0  0.6173E-08
   (  4, 20,  2)  (  4, 20,  2)  (  4, 20,  1)  (  4, 20,  1)  (  4, 20,  1)
  1  0.5771E-08
   (  4, 20,  1)



 OUTPUT CONTROL FOR STRESS PERIOD   19   TIME STEP    2
    SAVE HEAD FOR ALL LAYERS
    SAVE DRAWDOWN FOR ALL LAYERS
    SAVE BUDGET
    PRINT BUDGET
 UBDSV1 SAVING "         STORAGE" ON UNIT   9 AT TIME STEP  2, STRESS PERIOD  19
 UBDSV2 SAVING "   CONSTANT HEAD" ON UNIT   9 AT TIME STEP  2, STRESS PERIOD  19
 UBDSV1 SAVING "FLOW RIGHT FACE " ON UNIT   9 AT TIME STEP  2, STRESS PERIOD  19
 UBDSV1 SAVING "FLOW FRONT FACE " ON UNIT   9 AT TIME STEP  2, STRESS PERIOD  19
 UBDSV1 SAVING "FLOW LOWER FACE " ON UNIT   9 AT TIME STEP  2, STRESS PERIOD  19
 UBDSV3 SAVING "        RECHARGE" ON UNIT   9 AT TIME STEP  2, STRESS PERIOD  19

 HEAD WILL BE SAVED ON UNIT   37 AT END OF TIME STEP    2, STRESS PERIOD   19

 DRAWDOWN WILL BE SAVED ON UNIT   38 AT END OF TIME STEP    2, STRESS PERIOD   19
1
  VOLUMETRIC BUDGET FOR ENTIRE MODEL AT END OF TIME STEP    2, STRESS PERIOD  19
  ------------------------------------------------------------------------------

     CUMULATIVE VOLUMES      L**3       RATES FOR THIS TIME STEP      L**3/T
     ------------------                 ------------------------

           IN:                                      IN:
           ---                                      ---
             STORAGE =        5890.8286               STORAGE =       1.7801E-04
       CONSTANT HEAD =        5089.3022         CONSTANT HEAD =       2.1438E-03
            RECHARGE =         228.1789              RECHARGE =       9.7813E-05

            TOTAL IN =       11208.3096              TOTAL IN =       2.4196E-03

          OUT:                                     OUT:
          ----                                     ----
             STORAGE =         630.5262               STORAGE =       1.0003E-05
       CONSTANT HEAD =       10578.0400         CONSTANT HEAD =       2.4097E-03
            RECHARGE =           0.0000              RECHARGE =           0.0000

           TOTAL OUT =       11208.5664             TOTAL OUT =       2.4197E-03

            IN - OUT =          -0.2568              IN - OUT =      -9.0338E-08

 PERCENT DISCREPANCY =          -0.00     PERCENT DISCREPANCY =          -0.00






         TIME SUMMARY AT END OF TIME STEP    2 IN STRESS PERIOD   19
                    SECONDS     MINUTES      HOURS       DAYS        YEARS
                    -----------------------------------------------------------
   TIME STEP LENGTH  86400.      1440.0      24.000      1.0000     2.73785E-03
 STRESS PERIOD TIME 1.72800E+05  2880.0      48.000      2.0000     5.47570E-03
         TOTAL TIME 2.33280E+06  38880.      648.00      27.000     7.39220E-02
1

 SOLVING FOR HEAD 
     3 CALLS TO PCG ROUTINE FOR TIME STEP   3 IN STRESS PERIOD   19
    43 TOTAL ITERATIONS

 MAXIMUM HEAD CHANGE FOR EACH ITERATION (1 INDICATES THE FIRST INNER ITERATION):

    HEAD CHANGE    HEAD CHANGE    HEAD CHANGE    HEAD CHANGE    HEAD CHANGE 
   LAYER,ROW,COL  LAYER,ROW,COL  LAYER,ROW,COL  LAYER,ROW,COL  LAYER,ROW,COL
 ---------------------------------------------------------------------------
  1 -0.4405E-01  0  0.3419E-01  0 -0.2688E-01  0  0.1928E-01  0 -0.1429E-01
   (  5, 21,  2)  (  5, 20,  1)  (  5, 18,  1)  (  5, 17,  1)  (  5, 16,  1)
  0  0.7843E-02  0 -0.7908E-02  0  0.2869E-02  0 -0.1815E-02  0 -0.1294E-02
   (  5, 14,  1)  (  5, 18,  1)  (  5, 12,  2)  (  5, 11,  2)  (  5, 14,  4)
  0  0.1035E-02  0 -0.7157E-03  0  0.6349E-03  0 -0.2600E-03  0 -0.1713E-03
   (  5, 19,  1)  (  5, 16,  3)  (  5, 15,  3)  (  5, 16,  5)  (  5, 18,  2)
  0  0.1318E-03  0 -0.8512E-04  0  0.5090E-04  0 -0.4174E-04  0 -0.2052E-04
   (  5, 17,  2)  (  5, 16,  3)  (  5, 18,  2)  (  5, 17,  2)  (  5, 13,  6)
  0 -0.2366E-04  0  0.1799E-04  0 -0.1334E-04  0  0.1093E-04  0 -0.3970E-05
   (  5, 13,  1)  (  5, 15,  1)  (  5, 17,  1)  (  5, 18,  1)  (  5,  7,  1)
  0  0.3761E-05  0  0.1464E-05  0 -0.1423E-05  0 -0.6922E-06  1  0.5076E-04
   (  5,  7,  1)  (  5, 14,  4)  (  5,  8,  1)  (  5, 13, 10)  (  5, 18,  3)
  0 -0.2789E-04  0  0.3958E-04  0 -0.1731E-04  0  0.1228E-04  0  0.7817E-05
   (  5, 18,  2)  (  5, 17,  1)  (  5, 14,  1)  (  5, 13,  1)  (  5, 20,  1)
  0 -0.8635E-05  0 -0.4738E-05  0 -0.2091E-05  0 -0.1523E-05  0  0.1027E-05
   (  5, 20,  2)  (  5, 15,  1)  (  5, 18,  1)  (  5, 15,  3)  (  5, 14,  3)
  0 -0.1065E-05  0 -0.5692E-06  1  0.3461E-06
   (  5, 16,  5)  (  5, 18,  4)  (  5, 10,  6)

 MAXIMUM RESIDUAL FOR EACH ITERATION (1 INDICATES THE FIRST INNER ITERATION):

    RESIDUAL       RESIDUAL       RESIDUAL       RESIDUAL       RESIDUAL    
   LAYER,ROW,COL  LAYER,ROW,COL  LAYER,ROW,COL  LAYER,ROW,COL  LAYER,ROW,COL
 ---------------------------------------------------------------------------
  1  0.8535E-03  0  0.6813E-03  0  0.4791E-03  0  0.3072E-03  0  0.1885E-03
   (  3, 17, 17)  (  3, 17, 17)  (  3, 17, 17)  (  3, 17, 17)  (  3, 17, 17)
  0  0.1225E-03  0  0.7404E-04  0  0.4475E-04  0  0.3343E-04  0  0.2494E-04
   (  3, 20, 11)  (  3, 20, 11)  (  3, 20, 11)  (  4, 16, 17)  (  4, 16, 17)
  0  0.1862E-04  0  0.1295E-04  0  0.8922E-05  0  0.5990E-05  0  0.4036E-05
   (  4, 16, 17)  (  4, 16, 17)  (  4, 16, 17)  (  4, 16, 17)  (  4, 16, 17)
  0  0.2598E-05  0  0.1666E-05  0 -0.1030E-05  0 -0.6095E-06  0 -0.3130E-06
   (  4, 16, 17)  (  4, 16, 17)  (  3, 21,  6)  (  3, 21,  6)  (  3, 21,  6)
  0 -0.1973E-06  0  0.1373E-06  0  0.1085E-06  0  0.8974E-07  0  0.6921E-07
   (  3, 21,  6)  (  3, 17, 17)  (  3, 17, 17)  (  3, 17, 17)  (  3, 17, 17)
  0  0.5270E-07  0  0.3817E-07  0  0.2635E-07  0  0.1744E-07  1 -0.9383E-06
   (  3, 17, 17)  (  3, 17, 17)  (  3, 17, 17)  (  3, 17, 17)  (  3, 18,  3)
  0 -0.6211E-06  0 -0.3116E-06  0  0.2337E-06  0  0.1849E-06  0  0.1189E-06
   (  3, 18,  3)  (  3, 18,  3)  (  4, 18,  3)  (  4, 18,  3)  (  4, 18,  3)
  0  0.6855E-07  0 -0.3967E-07  0 -0.3831E-07  0 -0.2958E-07  0 -0.2311E-07
   (  4, 18,  3)  (  4, 17,  3)  (  4, 17,  3)  (  4, 17,  3)  (  4, 18,  2)
  0 -0.1572E-07  0 -0.9640E-08  1 -0.8551E-08
   (  4, 18,  2)  (  4, 18,  2)  (  4, 18,  2)



 OUTPUT CONTROL FOR STRESS PERIOD   19   TIME STEP    3
    SAVE HEAD FOR ALL LAYERS
    SAVE DRAWDOWN FOR ALL LAYERS
    SAVE BUDGET
    PRINT BUDGET
 UBDSV1 SAVING "         STORAGE" ON UNIT   9 AT TIME STEP  3, STRESS PERIOD  19
 UBDSV2 SAVING "   CONSTANT HEAD" ON UNIT   9 AT TIME STEP  3, STRESS PERIOD  19
 UBDSV1 SAVING "FLOW RIGHT FACE " ON UNIT   9 AT TIME STEP  3, STRESS PERIOD  19
 UBDSV1 SAVING "FLOW FRONT FACE " ON UNIT   9 AT TIME STEP  3, STRESS PERIOD  19
 UBDSV1 SAVING "FLOW LOWER FACE " ON UNIT   9 AT TIME STEP  3, STRESS PERIOD  19
 UBDSV3 SAVING "        RECHARGE" ON UNIT   9 AT TIME STEP  3, STRESS PERIOD  19

 HEAD WILL BE SAVED ON UNIT   37 AT END OF TIME STEP    3, STRESS PERIOD   19

 DRAWDOWN WILL BE SAVED ON UNIT   38 AT END OF TIME STEP    3, STRESS PERIOD   19
1
  VOLUMETRIC BUDGET FOR ENTIRE MODEL AT END OF TIME STEP    3, STRESS PERIOD  19
  ------------------------------------------------------------------------------

     CUMULATIVE VOLUMES      L**3       RATES FOR THIS TIME STEP      L**3/T
     ------------------                 ------------------------

           IN:                                      IN:
           ---                                      ---
             STORAGE =        5922.1763               STORAGE =       3.6282E-04
       CONSTANT HEAD =        5279.7266         CONSTANT HEAD =       2.2040E-03
            RECHARGE =         236.6299              RECHARGE =       9.7813E-05

            TOTAL IN =       11438.5322              TOTAL IN =       2.6646E-03

          OUT:                                     OUT:
          ----                                     ----
             STORAGE =         630.5262               STORAGE =           0.0000
       CONSTANT HEAD =       10808.2705         CONSTANT HEAD =       2.6647E-03
            RECHARGE =           0.0000              RECHARGE =           0.0000

           TOTAL OUT =       11438.7969             TOTAL OUT =       2.6647E-03

            IN - OUT =          -0.2646              IN - OUT =      -8.3819E-08

 PERCENT DISCREPANCY =          -0.00     PERCENT DISCREPANCY =          -0.00






         TIME SUMMARY AT END OF TIME STEP    3 IN STRESS PERIOD   19
                    SECONDS     MINUTES      HOURS       DAYS        YEARS
                    -----------------------------------------------------------
   TIME STEP LENGTH  86400.      1440.0      24.000      1.0000     2.73785E-03
 STRESS PERIOD TIME 2.59200E+05  4320.0      72.000      3.0000     8.21355E-03
         TOTAL TIME 2.41920E+06  40320.      672.00      28.000     7.66598E-02
1
1
                            STRESS PERIOD NO.   20, LENGTH =   86400.00    
                            -----------------------------------------------

                              NUMBER OF TIME STEPS =     1

                               MULTIPLIER FOR DELT =     1.000

                            INITIAL TIME STEP SIZE =   86400.00    

 REUSING RECH FROM LAST STRESS PERIOD

 CHD NO.   LAYER   ROW   COL    START HEAD        END HEAD         IFACE           
 ----------------------------------------------------------------------------------
      1      4      1      1       109.4           109.4           0.000    
      2      5      1      1       109.4           109.4           0.000    
      3      4      1      2       109.4           109.4           0.000    
      4      5      1      2       109.4           109.4           0.000    
      5      4      1      3       109.4           109.4           0.000    
      6      5      1      3       109.4           109.4           0.000    
      7      4      1      4       109.4           109.4           0.000    
      8      5      1      4       109.4           109.4           0.000    
      9      4      1      5       109.4           109.4           0.000    
     10      5      1      5       109.4           109.4           0.000    
     11      4      1      6       109.4           109.4           0.000    
     12      5      1      6       109.4           109.4           0.000    
     13      4      1      7       109.4           109.4           0.000    
     14      5      1      7       109.4           109.4           0.000    
     15      4      1      8       109.4           109.4           0.000    
     16      5      1      8       109.4           109.4           0.000    
     17      4      1      9       109.4           109.4           0.000    
     18      5      1      9       109.4           109.4           0.000    
     19      4      1     10       109.4           109.4           0.000    
     20      5      1     10       109.4           109.4           0.000    
     21      4      1     11       109.4           109.4           0.000    
     22      5      1     11       109.4           109.4           0.000    
     23      4      1     12       109.4           109.4           0.000    
     24      5      1     12       109.4           109.4           0.000    
     25      4      1     13       109.4           109.4           0.000    
     26      5      1     13       109.4           109.4           0.000    
     27      4      1     14       109.4           109.4           0.000    
     28      5      1     14       109.4           109.4           0.000    
     29      4      1     15       109.4           109.4           0.000    
     30      5      1     15       109.4           109.4           0.000    
     31      4      1     16       109.4           109.4           0.000    
     32      5      1     16       109.4           109.4           0.000    
     33      4      1     17       109.4           109.4           0.000    
     34      5      1     17       109.4           109.4           0.000    
     35      4     17     17       109.2           109.2           0.000    
     36      5     17     17       109.2           109.2           0.000    
     37      4     18     17       109.2           109.2           0.000    
     38      5     18     17       109.2           109.2           0.000    
     39      4     18     16       109.2           109.2           0.000    
     40      5     18     16       109.2           109.2           0.000    
     41      4     19     16       109.2           109.2           0.000    
     42      5     19     16       109.2           109.2           0.000    
     43      4     19     15       109.2           109.2           0.000    
     44      5     19     15       109.2           109.2           0.000    
     45      4     20     15       109.2           109.2           0.000    
     46      5     20     15       109.2           109.2           0.000    
     47      4     20     14       109.2           109.2           0.000    
     48      5     20     14       109.2           109.2           0.000    
     49      4     20     13       109.2           109.2           0.000    
     50      5     20     13       109.2           109.2           0.000    
     51      4     20     12       109.2           109.2           0.000    
     52      5     20     12       109.2           109.2           0.000    
     53      4     20     11       109.2           109.2           0.000    
     54      5     20     11       109.2           109.2           0.000    
     55      4     21     11       109.2           109.2           0.000    
     56      5     21     11       109.2           109.2           0.000    
     57      4     21     10       109.2           109.2           0.000    
     58      5     21     10       109.2           109.2           0.000    
     59      4     21      9       109.2           109.2           0.000    
     60      5     21      9       109.2           109.2           0.000    
     61      4     21      8       109.2           109.2           0.000    
     62      5     21      8       109.2           109.2           0.000    
     63      4     21      7       109.2           109.2           0.000    
     64      5     21      7       109.2           109.2           0.000    
     65      4     21      6       109.2           109.2           0.000    
     66      5     21      6       109.2           109.2           0.000    
     67      4     21      5       109.2           109.2           0.000    
     68      5     21      5       109.2           109.2           0.000    
     69      4     22      5       109.2           109.2           0.000    
     70      5     22      5       109.2           109.2           0.000    
     71      4     22      4       109.2           109.2           0.000    
     72      5     22      4       109.2           109.2           0.000    
     73      4     22      3       109.2           109.2           0.000    
     74      5     22      3       109.2           109.2           0.000    
     75      4     22      2       109.2           109.2           0.000    
     76      5     22      2       109.2           109.2           0.000    
     77      4     22      1       109.2           109.2           0.000    
     78      5     22      1       109.2           109.2           0.000    


     78 TIME-VARIANT SPECIFIED-HEAD CELLS

 SOLVING FOR HEAD 


     3 CALLS TO PCG ROUTINE FOR TIME STEP   1 IN STRESS PERIOD   20
    38 TOTAL ITERATIONS

 MAXIMUM HEAD CHANGE FOR EACH ITERATION (1 INDICATES THE FIRST INNER ITERATION):

    HEAD CHANGE    HEAD CHANGE    HEAD CHANGE    HEAD CHANGE    HEAD CHANGE 
   LAYER,ROW,COL  LAYER,ROW,COL  LAYER,ROW,COL  LAYER,ROW,COL  LAYER,ROW,COL
 ---------------------------------------------------------------------------
  1  0.3635E-01  0 -0.2751E-01  0  0.1880E-01  0  0.1633E-01  0 -0.1301E-01
   (  5, 21,  2)  (  5, 20,  1)  (  5, 19,  1)  (  5, 20,  1)  (  5, 19,  1)
  0  0.1045E-01  0 -0.5367E-02  0  0.3020E-02  0 -0.1865E-02  0  0.1071E-02
   (  5, 17,  1)  (  5, 16,  1)  (  5, 19,  1)  (  5, 18,  1)  (  5, 14,  4)
  0 -0.9747E-03  0  0.6191E-03  0 -0.4843E-03  0 -0.2377E-03  0 -0.1664E-03
   (  5, 19,  1)  (  5, 16,  3)  (  5, 15,  3)  (  5, 19,  3)  (  5, 14,  5)
  0 -0.1151E-03  0  0.6609E-04  0 -0.3995E-04  0  0.3169E-04  0  0.3616E-04
   (  5, 17,  2)  (  5, 16,  3)  (  5, 15,  3)  (  5,  6,  1)  (  5, 15,  1)
  0 -0.1970E-04  0  0.1187E-04  0 -0.6170E-05  0  0.5767E-05  0 -0.4158E-05
   (  5, 17,  1)  (  5, 18,  2)  (  5,  6,  1)  (  5, 19,  2)  (  5, 19,  1)
  0 -0.2482E-05  0 -0.1554E-05  0  0.1358E-05  0 -0.8974E-06  1 -0.7179E-05
   (  5,  7,  1)  (  5, 19,  2)  (  5, 19,  3)  (  5, 18,  3)  (  5, 16,  1)
  0  0.6471E-05  0 -0.5746E-05  0  0.6512E-05  0 -0.3494E-05  0  0.1700E-05
   (  5, 17,  1)  (  5, 20,  1)  (  5, 19,  1)  (  5, 18,  1)  (  5, 18,  2)
  0  0.1304E-05  0  0.8778E-06  1  0.5449E-06
   (  5, 12,  1)  (  5, 18,  1)  (  5, 12,  3)

 MAXIMUM RESIDUAL FOR EACH ITERATION (1 INDICATES THE FIRST INNER ITERATION):

    RESIDUAL       RESIDUAL       RESIDUAL       RESIDUAL       RESIDUAL    
   LAYER,ROW,COL  LAYER,ROW,COL  LAYER,ROW,COL  LAYER,ROW,COL  LAYER,ROW,COL
 ---------------------------------------------------------------------------
  1 -0.7395E-03  0 -0.5805E-03  0 -0.3997E-03  0 -0.2541E-03  0 -0.1572E-03
   (  3, 17, 17)  (  3, 17, 17)  (  3, 17, 17)  (  3, 17, 17)  (  3, 17, 17)
  0 -0.1010E-03  0 -0.6130E-04  0 -0.3684E-04  0 -0.2917E-04  0 -0.2194E-04
   (  3, 20, 11)  (  3, 20, 11)  (  4, 16, 17)  (  4, 16, 17)  (  4, 16, 17)
  0 -0.1619E-04  0 -0.1119E-04  0 -0.7680E-05  0 -0.5111E-05  0 -0.3441E-05
   (  4, 16, 17)  (  4, 16, 17)  (  4, 16, 17)  (  4, 16, 17)  (  4, 16, 17)
  0 -0.2209E-05  0 -0.1404E-05  0 -0.8369E-06  0 -0.4978E-06  0 -0.3456E-06
   (  4, 16, 17)  (  4, 16, 17)  (  4, 16, 17)  (  4, 16, 17)  (  4, 16, 17)
  0 -0.1954E-06  0 -0.1172E-06  0 -0.8968E-07  0 -0.7307E-07  0 -0.6005E-07
   (  4, 16, 17)  (  3, 17, 17)  (  3, 17, 17)  (  3, 17, 17)  (  3, 17, 17)
  0 -0.4595E-07  0 -0.3289E-07  0 -0.2260E-07  0 -0.1502E-07  1 -0.1556E-06
   (  3, 17, 17)  (  3, 17, 17)  (  3, 17, 17)  (  3, 17, 17)  (  3, 21,  1)
  0 -0.1035E-06  0  0.6838E-07  0  0.4838E-07  0  0.3904E-07  0  0.2490E-07
   (  3, 21,  1)  (  4, 21,  2)  (  4, 21,  2)  (  4, 21,  2)  (  4, 21,  2)
  0  0.1692E-07  0 -0.1178E-07  1  0.1014E-07
   (  4, 21,  2)  (  4, 20,  2)  (  4, 21,  2)



 OUTPUT CONTROL FOR STRESS PERIOD   20   TIME STEP    1
    SAVE HEAD FOR ALL LAYERS
    SAVE DRAWDOWN FOR ALL LAYERS
    SAVE BUDGET
    PRINT BUDGET
 UBDSV1 SAVING "         STORAGE" ON UNIT   9 AT TIME STEP  1, STRESS PERIOD  20
 UBDSV2 SAVING "   CONSTANT HEAD" ON UNIT   9 AT TIME STEP  1, STRESS PERIOD  20
 UBDSV1 SAVING "FLOW RIGHT FACE " ON UNIT   9 AT TIME STEP  1, STRESS PERIOD  20
 UBDSV1 SAVING "FLOW FRONT FACE " ON UNIT   9 AT TIME STEP  1, STRESS PERIOD  20
 UBDSV1 SAVING "FLOW LOWER FACE " ON UNIT   9 AT TIME STEP  1, STRESS PERIOD  20
 UBDSV3 SAVING "        RECHARGE" ON UNIT   9 AT TIME STEP  1, STRESS PERIOD  20

 HEAD WILL BE SAVED ON UNIT   37 AT END OF TIME STEP    1, STRESS PERIOD   20

 DRAWDOWN WILL BE SAVED ON UNIT   38 AT END OF TIME STEP    1, STRESS PERIOD   20
1
  VOLUMETRIC BUDGET FOR ENTIRE MODEL AT END OF TIME STEP    1, STRESS PERIOD  20
  ------------------------------------------------------------------------------

     CUMULATIVE VOLUMES      L**3       RATES FOR THIS TIME STEP      L**3/T
     ------------------                 ------------------------

           IN:                                      IN:
           ---                                      ---
             STORAGE =        5922.1826               STORAGE =       7.2643E-08
       CONSTANT HEAD =        5469.4771         CONSTANT HEAD =       2.1962E-03
            RECHARGE =         245.0810              RECHARGE =       9.7813E-05

            TOTAL IN =       11636.7412              TOTAL IN =       2.2941E-03

          OUT:                                     OUT:
          ----                                     ----
             STORAGE =         644.2308               STORAGE =       1.5862E-04
       CONSTANT HEAD =       10992.7832         CONSTANT HEAD =       2.1356E-03
            RECHARGE =           0.0000              RECHARGE =           0.0000

           TOTAL OUT =       11637.0137             TOTAL OUT =       2.2942E-03

            IN - OUT =          -0.2725              IN - OUT =      -1.1409E-07

 PERCENT DISCREPANCY =          -0.00     PERCENT DISCREPANCY =          -0.00






         TIME SUMMARY AT END OF TIME STEP    1 IN STRESS PERIOD   20
                    SECONDS     MINUTES      HOURS       DAYS        YEARS
                    -----------------------------------------------------------
   TIME STEP LENGTH  86400.      1440.0      24.000      1.0000     2.73785E-03
 STRESS PERIOD TIME  86400.      1440.0      24.000      1.0000     2.73785E-03
         TOTAL TIME 2.50560E+06  41760.      696.00      29.000     7.93977E-02
1
1
                            STRESS PERIOD NO.   21, LENGTH =   86400.00    
                            -----------------------------------------------

                              NUMBER OF TIME STEPS =     1

                               MULTIPLIER FOR DELT =     1.000

                            INITIAL TIME STEP SIZE =   86400.00    

 REUSING RECH FROM LAST STRESS PERIOD

 CHD NO.   LAYER   ROW   COL    START HEAD        END HEAD         IFACE           
 ----------------------------------------------------------------------------------
      1      4      1      1       109.4           109.4           0.000    
      2      5      1      1       109.4           109.4           0.000    
      3      4      1      2       109.4           109.4           0.000    
      4      5      1      2       109.4           109.4           0.000    
      5      4      1      3       109.4           109.4           0.000    
      6      5      1      3       109.4           109.4           0.000    
      7      4      1      4       109.4           109.4           0.000    
      8      5      1      4       109.4           109.4           0.000    
      9      4      1      5       109.4           109.4           0.000    
     10      5      1      5       109.4           109.4           0.000    
     11      4      1      6       109.4           109.4           0.000    
     12      5      1      6       109.4           109.4           0.000    
     13      4      1      7       109.4           109.4           0.000    
     14      5      1      7       109.4           109.4           0.000    
     15      4      1      8       109.4           109.4           0.000    
     16      5      1      8       109.4           109.4           0.000    
     17      4      1      9       109.4           109.4           0.000    
     18      5      1      9       109.4           109.4           0.000    
     19      4      1     10       109.4           109.4           0.000    
     20      5      1     10       109.4           109.4           0.000    
     21      4      1     11       109.4           109.4           0.000    
     22      5      1     11       109.4           109.4           0.000    
     23      4      1     12       109.4           109.4           0.000    
     24      5      1     12       109.4           109.4           0.000    
     25      4      1     13       109.4           109.4           0.000    
     26      5      1     13       109.4           109.4           0.000    
     27      4      1     14       109.4           109.4           0.000    
     28      5      1     14       109.4           109.4           0.000    
     29      4      1     15       109.4           109.4           0.000    
     30      5      1     15       109.4           109.4           0.000    
     31      4      1     16       109.4           109.4           0.000    
     32      5      1     16       109.4           109.4           0.000    
     33      4      1     17       109.4           109.4           0.000    
     34      5      1     17       109.4           109.4           0.000    
     35      4     17     17       109.2           109.2           0.000    
     36      5     17     17       109.2           109.2           0.000    
     37      4     18     17       109.2           109.2           0.000    
     38      5     18     17       109.2           109.2           0.000    
     39      4     18     16       109.2           109.2           0.000    
     40      5     18     16       109.2           109.2           0.000    
     41      4     19     16       109.2           109.2           0.000    
     42      5     19     16       109.2           109.2           0.000    
     43      4     19     15       109.2           109.2           0.000    
     44      5     19     15       109.2           109.2           0.000    
     45      4     20     15       109.2           109.2           0.000    
     46      5     20     15       109.2           109.2           0.000    
     47      4     20     14       109.2           109.2           0.000    
     48      5     20     14       109.2           109.2           0.000    
     49      4     20     13       109.2           109.2           0.000    
     50      5     20     13       109.2           109.2           0.000    
     51      4     20     12       109.2           109.2           0.000    
     52      5     20     12       109.2           109.2           0.000    
     53      4     20     11       109.2           109.2           0.000    
     54      5     20     11       109.2           109.2           0.000    
     55      4     21     11       109.2           109.2           0.000    
     56      5     21     11       109.2           109.2           0.000    
     57      4     21     10       109.2           109.2           0.000    
     58      5     21     10       109.2           109.2           0.000    
     59      4     21      9       109.2           109.2           0.000    
     60      5     21      9       109.2           109.2           0.000    
     61      4     21      8       109.2           109.2           0.000    
     62      5     21      8       109.2           109.2           0.000    
     63      4     21      7       109.2           109.2           0.000    
     64      5     21      7       109.2           109.2           0.000    
     65      4     21      6       109.2           109.1           0.000    
     66      5     21      6       109.2           109.1           0.000    
     67      4     21      5       109.2           109.1           0.000    
     68      5     21      5       109.2           109.1           0.000    
     69      4     22      5       109.2           109.1           0.000    
     70      5     22      5       109.2           109.1           0.000    
     71      4     22      4       109.2           109.1           0.000    
     72      5     22      4       109.2           109.1           0.000    
     73      4     22      3       109.2           109.1           0.000    
     74      5     22      3       109.2           109.1           0.000    
     75      4     22      2       109.2           109.1           0.000    
     76      5     22      2       109.2           109.1           0.000    
     77      4     22      1       109.2           109.1           0.000    
     78      5     22      1       109.2           109.1           0.000    


     78 TIME-VARIANT SPECIFIED-HEAD CELLS

 SOLVING FOR HEAD 


     3 CALLS TO PCG ROUTINE FOR TIME STEP   1 IN STRESS PERIOD   21
    46 TOTAL ITERATIONS

 MAXIMUM HEAD CHANGE FOR EACH ITERATION (1 INDICATES THE FIRST INNER ITERATION):

    HEAD CHANGE    HEAD CHANGE    HEAD CHANGE    HEAD CHANGE    HEAD CHANGE 
   LAYER,ROW,COL  LAYER,ROW,COL  LAYER,ROW,COL  LAYER,ROW,COL  LAYER,ROW,COL
 ---------------------------------------------------------------------------
  1 -0.9175E-01  0  0.7086E-01  0 -0.5372E-01  0 -0.3624E-01  0  0.2308E-01
   (  5, 21,  2)  (  5, 20,  1)  (  5, 19,  1)  (  5, 20,  1)  (  5, 19,  1)
  0 -0.1062E-01  0 -0.9453E-02  0  0.8566E-02  0 -0.4931E-02  0  0.3644E-02
   (  5, 18,  1)  (  5, 18,  1)  (  5, 17,  1)  (  5, 16,  1)  (  5, 18,  1)
  0  0.1964E-02  0 -0.1527E-02  0  0.1293E-02  0  0.5313E-03  0  0.3708E-03
   (  5, 19,  1)  (  5, 16,  3)  (  5, 15,  3)  (  5, 18,  1)  (  5, 14,  5)
  0  0.2786E-03  0 -0.1812E-03  0  0.1050E-03  0 -0.7890E-04  0 -0.4436E-04
   (  5, 17,  2)  (  5, 16,  3)  (  5, 15,  3)  (  5, 17,  2)  (  5, 13,  6)
  0  0.3634E-04  0 -0.3408E-04  0  0.1737E-04  0 -0.1374E-04  0  0.1320E-04
   (  5, 18,  1)  (  5, 19,  1)  (  5, 18,  1)  (  5, 14,  1)  (  5, 16,  1)
  0  0.7031E-05  0  0.3278E-05  0 -0.2962E-05  0  0.1664E-05  0 -0.1087E-05
   (  5,  7,  1)  (  5,  8,  2)  (  5,  8,  1)  (  5,  8,  1)  (  5, 19,  1)
  1  0.1604E-03  0  0.9137E-04  0  0.1333E-03  0 -0.5878E-04  0  0.4171E-04
   (  5, 18,  3)  (  3, 18,  3)  (  5, 17,  1)  (  5, 15,  1)  (  5, 13,  1)
  0  0.3189E-04  0 -0.2523E-04  0 -0.1811E-04  0 -0.7739E-05  0 -0.5805E-05
   (  5, 20,  1)  (  5, 20,  2)  (  5, 15,  1)  (  5, 11,  2)  (  5, 15,  3)
  0  0.4113E-05  0 -0.3040E-05  0  0.1791E-05  0 -0.1132E-05  0  0.9534E-06
   (  5, 14,  3)  (  5, 16,  4)  (  5, 15,  5)  (  5, 15,  6)  (  5, 13,  6)
  1 -0.5092E-06
   (  5, 13,  6)

 MAXIMUM RESIDUAL FOR EACH ITERATION (1 INDICATES THE FIRST INNER ITERATION):

    RESIDUAL       RESIDUAL       RESIDUAL       RESIDUAL       RESIDUAL    
   LAYER,ROW,COL  LAYER,ROW,COL  LAYER,ROW,COL  LAYER,ROW,COL  LAYER,ROW,COL
 ---------------------------------------------------------------------------
  1  0.1800E-02  0  0.1421E-02  0  0.9850E-03  0  0.6224E-03  0  0.3610E-03
   (  3, 17, 17)  (  3, 17, 17)  (  3, 17, 17)  (  3, 17, 17)  (  3, 20, 11)
  0  0.2072E-03  0  0.1166E-03  0  0.8070E-04  0  0.6855E-04  0  0.5263E-04
   (  3, 20, 11)  (  3, 20, 11)  (  4, 16, 17)  (  4, 16, 17)  (  4, 16, 17)
  0  0.3917E-04  0  0.2721E-04  0  0.1869E-04  0  0.1249E-04  0  0.8407E-05
   (  4, 16, 17)  (  4, 16, 17)  (  4, 16, 17)  (  4, 16, 17)  (  4, 16, 17)
  0  0.5398E-05  0  0.3461E-05  0  0.2098E-05  0 -0.1215E-05  0 -0.6107E-06
   (  4, 16, 17)  (  4, 16, 17)  (  4, 16, 17)  (  3, 21,  6)  (  3, 21,  6)
  0  0.3492E-06  0  0.2807E-06  0  0.2127E-06  0  0.1740E-06  0  0.1455E-06
   (  4, 16, 17)  (  3, 17, 17)  (  3, 17, 17)  (  3, 17, 17)  (  3, 17, 17)
  0  0.1123E-06  0  0.8107E-07  0  0.5553E-07  0  0.3660E-07  0  0.2514E-07
   (  3, 17, 17)  (  3, 17, 17)  (  3, 17, 17)  (  3, 17, 17)  (  3, 17, 17)
  1 -0.2868E-05  0 -0.1813E-05  0 -0.9339E-06  0  0.7206E-06  0  0.5522E-06
   (  3, 18,  3)  (  3, 18,  3)  (  3, 18,  3)  (  4, 18,  3)  (  4, 18,  3)
  0  0.3753E-06  0  0.2576E-06  0  0.1292E-06  0 -0.1144E-06  0 -0.8729E-07
   (  4, 18,  3)  (  4, 18,  3)  (  4, 18,  3)  (  4, 17,  3)  (  4, 17,  3)
  0 -0.6968E-07  0 -0.4966E-07  0 -0.2747E-07  0  0.1587E-07  0  0.9728E-08
   (  4, 18,  2)  (  4, 18,  2)  (  4, 18,  2)  (  4, 17,  4)  (  4, 17,  4)
  1  0.8803E-08
   (  4, 17,  4)



 OUTPUT CONTROL FOR STRESS PERIOD   21   TIME STEP    1
    SAVE HEAD FOR ALL LAYERS
    SAVE DRAWDOWN FOR ALL LAYERS
    SAVE BUDGET
    PRINT BUDGET
 UBDSV1 SAVING "         STORAGE" ON UNIT   9 AT TIME STEP  1, STRESS PERIOD  21
 UBDSV2 SAVING "   CONSTANT HEAD" ON UNIT   9 AT TIME STEP  1, STRESS PERIOD  21
 UBDSV1 SAVING "FLOW RIGHT FACE " ON UNIT   9 AT TIME STEP  1, STRESS PERIOD  21
 UBDSV1 SAVING "FLOW FRONT FACE " ON UNIT   9 AT TIME STEP  1, STRESS PERIOD  21
 UBDSV1 SAVING "FLOW LOWER FACE " ON UNIT   9 AT TIME STEP  1, STRESS PERIOD  21
 UBDSV3 SAVING "        RECHARGE" ON UNIT   9 AT TIME STEP  1, STRESS PERIOD  21

 HEAD WILL BE SAVED ON UNIT   37 AT END OF TIME STEP    1, STRESS PERIOD   21

 DRAWDOWN WILL BE SAVED ON UNIT   38 AT END OF TIME STEP    1, STRESS PERIOD   21
1
  VOLUMETRIC BUDGET FOR ENTIRE MODEL AT END OF TIME STEP    1, STRESS PERIOD  21
  ------------------------------------------------------------------------------

     CUMULATIVE VOLUMES      L**3       RATES FOR THIS TIME STEP      L**3/T
     ------------------                 ------------------------

           IN:                                      IN:
           ---                                      ---
             STORAGE =        5979.9268               STORAGE =       6.6834E-04
       CONSTANT HEAD =        5664.9888         CONSTANT HEAD =       2.2629E-03
            RECHARGE =         253.5321              RECHARGE =       9.7813E-05

            TOTAL IN =       11898.4482              TOTAL IN =       3.0290E-03

          OUT:                                     OUT:
          ----                                     ----
             STORAGE =         644.2308               STORAGE =           0.0000
       CONSTANT HEAD =       11254.4971         CONSTANT HEAD =       3.0291E-03
            RECHARGE =           0.0000              RECHARGE =           0.0000

           TOTAL OUT =       11898.7275             TOTAL OUT =       3.0291E-03

            IN - OUT =          -0.2793              IN - OUT =      -7.7067E-08

 PERCENT DISCREPANCY =          -0.00     PERCENT DISCREPANCY =          -0.00






         TIME SUMMARY AT END OF TIME STEP    1 IN STRESS PERIOD   21
                    SECONDS     MINUTES      HOURS       DAYS        YEARS
                    -----------------------------------------------------------
   TIME STEP LENGTH  86400.      1440.0      24.000      1.0000     2.73785E-03
 STRESS PERIOD TIME  86400.      1440.0      24.000      1.0000     2.73785E-03
         TOTAL TIME 2.59200E+06  43200.      720.00      30.000     8.21355E-02
1
1
                            STRESS PERIOD NO.   22, LENGTH =   86400.00    
                            -----------------------------------------------

                              NUMBER OF TIME STEPS =     1

                               MULTIPLIER FOR DELT =     1.000

                            INITIAL TIME STEP SIZE =   86400.00    

 REUSING RECH FROM LAST STRESS PERIOD

 CHD NO.   LAYER   ROW   COL    START HEAD        END HEAD         IFACE           
 ----------------------------------------------------------------------------------
      1      4      1      1       109.4           109.4           0.000    
      2      5      1      1       109.4           109.4           0.000    
      3      4      1      2       109.4           109.4           0.000    
      4      5      1      2       109.4           109.4           0.000    
      5      4      1      3       109.4           109.4           0.000    
      6      5      1      3       109.4           109.4           0.000    
      7      4      1      4       109.4           109.4           0.000    
      8      5      1      4       109.4           109.4           0.000    
      9      4      1      5       109.4           109.4           0.000    
     10      5      1      5       109.4           109.4           0.000    
     11      4      1      6       109.4           109.4           0.000    
     12      5      1      6       109.4           109.4           0.000    
     13      4      1      7       109.4           109.4           0.000    
     14      5      1      7       109.4           109.4           0.000    
     15      4      1      8       109.4           109.4           0.000    
     16      5      1      8       109.4           109.4           0.000    
     17      4      1      9       109.4           109.4           0.000    
     18      5      1      9       109.4           109.4           0.000    
     19      4      1     10       109.4           109.4           0.000    
     20      5      1     10       109.4           109.4           0.000    
     21      4      1     11       109.4           109.4           0.000    
     22      5      1     11       109.4           109.4           0.000    
     23      4      1     12       109.4           109.4           0.000    
     24      5      1     12       109.4           109.4           0.000    
     25      4      1     13       109.4           109.4           0.000    
     26      5      1     13       109.4           109.4           0.000    
     27      4      1     14       109.4           109.4           0.000    
     28      5      1     14       109.4           109.4           0.000    
     29      4      1     15       109.4           109.4           0.000    
     30      5      1     15       109.4           109.4           0.000    
     31      4      1     16       109.4           109.4           0.000    
     32      5      1     16       109.4           109.4           0.000    
     33      4      1     17       109.4           109.4           0.000    
     34      5      1     17       109.4           109.4           0.000    
     35      4     17     17       109.2           109.2           0.000    
     36      5     17     17       109.2           109.2           0.000    
     37      4     18     17       109.2           109.2           0.000    
     38      5     18     17       109.2           109.2           0.000    
     39      4     18     16       109.2           109.2           0.000    
     40      5     18     16       109.2           109.2           0.000    
     41      4     19     16       109.2           109.2           0.000    
     42      5     19     16       109.2           109.2           0.000    
     43      4     19     15       109.2           109.2           0.000    
     44      5     19     15       109.2           109.2           0.000    
     45      4     20     15       109.2           109.2           0.000    
     46      5     20     15       109.2           109.2           0.000    
     47      4     20     14       109.2           109.2           0.000    
     48      5     20     14       109.2           109.2           0.000    
     49      4     20     13       109.2           109.2           0.000    
     50      5     20     13       109.2           109.2           0.000    
     51      4     20     12       109.2           109.2           0.000    
     52      5     20     12       109.2           109.2           0.000    
     53      4     20     11       109.2           109.2           0.000    
     54      5     20     11       109.2           109.2           0.000    
     55      4     21     11       109.2           109.2           0.000    
     56      5     21     11       109.2           109.2           0.000    
     57      4     21     10       109.2           109.2           0.000    
     58      5     21     10       109.2           109.2           0.000    
     59      4     21      9       109.2           109.2           0.000    
     60      5     21      9       109.2           109.2           0.000    
     61      4     21      8       109.2           109.2           0.000    
     62      5     21      8       109.2           109.2           0.000    
     63      4     21      7       109.2           109.1           0.000    
     64      5     21      7       109.2           109.1           0.000    
     65      4     21      6       109.1           109.1           0.000    
     66      5     21      6       109.1           109.1           0.000    
     67      4     21      5       109.1           109.1           0.000    
     68      5     21      5       109.1           109.1           0.000    
     69      4     22      5       109.1           109.1           0.000    
     70      5     22      5       109.1           109.1           0.000    
     71      4     22      4       109.1           109.1           0.000    
     72      5     22      4       109.1           109.1           0.000    
     73      4     22      3       109.1           109.1           0.000    
     74      5     22      3       109.1           109.1           0.000    
     75      4     22      2       109.1           109.1           0.000    
     76      5     22      2       109.1           109.1           0.000    
     77      4     22      1       109.1           109.1           0.000    
     78      5     22      1       109.1           109.1           0.000    


     78 TIME-VARIANT SPECIFIED-HEAD CELLS

 SOLVING FOR HEAD 


     3 CALLS TO PCG ROUTINE FOR TIME STEP   1 IN STRESS PERIOD   22
    39 TOTAL ITERATIONS

 MAXIMUM HEAD CHANGE FOR EACH ITERATION (1 INDICATES THE FIRST INNER ITERATION):

    HEAD CHANGE    HEAD CHANGE    HEAD CHANGE    HEAD CHANGE    HEAD CHANGE 
   LAYER,ROW,COL  LAYER,ROW,COL  LAYER,ROW,COL  LAYER,ROW,COL  LAYER,ROW,COL
 ---------------------------------------------------------------------------
  1 -0.1250E-01  0  0.9874E-02  0 -0.8371E-02  0 -0.5611E-02  0 -0.4104E-02
   (  5, 21,  2)  (  5, 20,  1)  (  5, 18,  1)  (  5, 20,  1)  (  5, 14,  1)
  0 -0.2370E-02  0 -0.1821E-02  0 -0.1171E-02  0 -0.5749E-03  0  0.4929E-03
   (  5, 17,  1)  (  5, 18,  1)  (  5, 16,  3)  (  5, 11,  2)  (  5, 16,  3)
  0  0.2427E-03  0 -0.1771E-03  0  0.1547E-03  0 -0.9532E-04  0  0.6643E-04
   (  5, 13,  5)  (  5, 13,  6)  (  5, 15,  3)  (  5, 15,  4)  (  5, 14,  4)
  0 -0.3696E-04  0 -0.2243E-04  0 -0.1456E-04  0 -0.1648E-04  0  0.1059E-04
   (  5, 13,  4)  (  5, 12,  1)  (  5, 15,  4)  (  5, 15,  1)  (  5, 16,  1)
  0  0.7347E-05  0 -0.5365E-05  0 -0.2008E-05  0  0.1913E-05  0  0.1766E-05
   (  5,  6,  1)  (  5,  6,  1)  (  5, 13,  1)  (  5, 12,  1)  (  5, 19,  1)
  0  0.9394E-06  1  0.3412E-04  0  0.2873E-04  0 -0.2630E-04  0  0.1627E-04
   (  5,  8,  1)  (  5, 14,  4)  (  3, 14,  4)  (  5, 18,  1)  (  5, 17,  1)
  0 -0.9779E-05  0  0.7351E-05  0 -0.4655E-05  0  0.3496E-05  0 -0.1892E-05
   (  5, 14,  1)  (  5, 14,  1)  (  5, 10,  1)  (  5, 12,  2)  (  5, 12,  1)
  0 -0.1870E-05  0 -0.1172E-05  0  0.9229E-06  1 -0.5245E-06
   (  5, 17,  2)  (  5, 20,  1)  (  5, 20,  1)  (  5, 21,  1)

 MAXIMUM RESIDUAL FOR EACH ITERATION (1 INDICATES THE FIRST INNER ITERATION):

    RESIDUAL       RESIDUAL       RESIDUAL       RESIDUAL       RESIDUAL    
   LAYER,ROW,COL  LAYER,ROW,COL  LAYER,ROW,COL  LAYER,ROW,COL  LAYER,ROW,COL
 ---------------------------------------------------------------------------
  1  0.1613E-03  0  0.1348E-03  0  0.9943E-04  0  0.6675E-04  0  0.4074E-04
   (  3, 17, 17)  (  3, 17, 17)  (  3, 17, 17)  (  3, 17, 17)  (  3, 17, 17)
  0  0.2259E-04  0  0.1173E-04  0 -0.9520E-05  0 -0.7909E-05  0 -0.5814E-05
   (  3, 20, 11)  (  3, 20, 11)  (  4, 21,  2)  (  4, 21,  2)  (  4, 21,  2)
  0 -0.4141E-05  0 -0.2681E-05  0 -0.1709E-05  0 -0.1187E-05  0 -0.8836E-06
   (  4, 21,  2)  (  4, 21,  2)  (  4, 21,  2)  (  3, 21,  6)  (  3, 21,  6)
  0 -0.6357E-06  0 -0.4317E-06  0 -0.2707E-06  0 -0.2003E-06  0 -0.1239E-06
   (  3, 21,  6)  (  3, 21,  6)  (  3, 21,  6)  (  3, 21,  6)  (  3, 21,  6)
  0 -0.6268E-07  0 -0.4208E-07  0  0.2787E-07  0  0.1961E-07  0  0.1420E-07
   (  3, 21,  6)  (  4, 20,  3)  (  5, 15, 17)  (  5, 15, 17)  (  5, 15, 17)
  0  0.9887E-08  1 -0.7463E-06  0 -0.4627E-06  0 -0.2652E-06  0  0.1690E-06
   (  5, 16, 17)  (  3, 14,  4)  (  3, 14,  4)  (  3, 14,  4)  (  4, 14,  4)
  0  0.1315E-06  0  0.9476E-07  0  0.6732E-07  0  0.3664E-07  0 -0.2573E-07
   (  4, 14,  4)  (  4, 14,  4)  (  4, 14,  4)  (  4, 14,  4)  (  4, 14,  3)
  0 -0.2095E-07  0 -0.1691E-07  0 -0.1105E-07  1 -0.1008E-07
   (  4, 13,  4)  (  4, 13,  4)  (  4, 13,  4)  (  4, 13,  4)



 OUTPUT CONTROL FOR STRESS PERIOD   22   TIME STEP    1
    SAVE HEAD FOR ALL LAYERS
    SAVE DRAWDOWN FOR ALL LAYERS
    SAVE BUDGET
    PRINT BUDGET
 UBDSV1 SAVING "         STORAGE" ON UNIT   9 AT TIME STEP  1, STRESS PERIOD  22
 UBDSV2 SAVING "   CONSTANT HEAD" ON UNIT   9 AT TIME STEP  1, STRESS PERIOD  22
 UBDSV1 SAVING "FLOW RIGHT FACE " ON UNIT   9 AT TIME STEP  1, STRESS PERIOD  22
 UBDSV1 SAVING "FLOW FRONT FACE " ON UNIT   9 AT TIME STEP  1, STRESS PERIOD  22
 UBDSV1 SAVING "FLOW LOWER FACE " ON UNIT   9 AT TIME STEP  1, STRESS PERIOD  22
 UBDSV3 SAVING "        RECHARGE" ON UNIT   9 AT TIME STEP  1, STRESS PERIOD  22

 HEAD WILL BE SAVED ON UNIT   37 AT END OF TIME STEP    1, STRESS PERIOD   22

 DRAWDOWN WILL BE SAVED ON UNIT   38 AT END OF TIME STEP    1, STRESS PERIOD   22
1
  VOLUMETRIC BUDGET FOR ENTIRE MODEL AT END OF TIME STEP    1, STRESS PERIOD  22
  ------------------------------------------------------------------------------

     CUMULATIVE VOLUMES      L**3       RATES FOR THIS TIME STEP      L**3/T
     ------------------                 ------------------------

           IN:                                      IN:
           ---                                      ---
             STORAGE =        6007.1914               STORAGE =       3.1556E-04
       CONSTANT HEAD =        5864.4790         CONSTANT HEAD =       2.3089E-03
            RECHARGE =         261.9831              RECHARGE =       9.7813E-05

            TOTAL IN =       12133.6533              TOTAL IN =       2.7223E-03

          OUT:                                     OUT:
          ----                                     ----
             STORAGE =         644.2308               STORAGE =           0.0000
       CONSTANT HEAD =       11489.7119         CONSTANT HEAD =       2.7224E-03
            RECHARGE =           0.0000              RECHARGE =           0.0000

           TOTAL OUT =       12133.9424             TOTAL OUT =       2.7224E-03

            IN - OUT =          -0.2891              IN - OUT =      -1.0128E-07

 PERCENT DISCREPANCY =          -0.00     PERCENT DISCREPANCY =          -0.00






         TIME SUMMARY AT END OF TIME STEP    1 IN STRESS PERIOD   22
                    SECONDS     MINUTES      HOURS       DAYS        YEARS
                    -----------------------------------------------------------
   TIME STEP LENGTH  86400.      1440.0      24.000      1.0000     2.73785E-03
 STRESS PERIOD TIME  86400.      1440.0      24.000      1.0000     2.73785E-03
         TOTAL TIME 2.67840E+06  44640.      744.00      31.000     8.48734E-02
1
1
                            STRESS PERIOD NO.   23, LENGTH =   345600.0    
                            -----------------------------------------------

                              NUMBER OF TIME STEPS =     4

                               MULTIPLIER FOR DELT =     1.000

                            INITIAL TIME STEP SIZE =   86400.00    

 REUSING RECH FROM LAST STRESS PERIOD

 CHD NO.   LAYER   ROW   COL    START HEAD        END HEAD         IFACE           
 ----------------------------------------------------------------------------------
      1      4      1      1       109.4           109.3           0.000    
      2      5      1      1       109.4           109.3           0.000    
      3      4      1      2       109.4           109.3           0.000    
      4      5      1      2       109.4           109.3           0.000    
      5      4      1      3       109.4           109.3           0.000    
      6      5      1      3       109.4           109.3           0.000    
      7      4      1      4       109.4           109.3           0.000    
      8      5      1      4       109.4           109.3           0.000    
      9      4      1      5       109.4           109.3           0.000    
     10      5      1      5       109.4           109.3           0.000    
     11      4      1      6       109.4           109.3           0.000    
     12      5      1      6       109.4           109.3           0.000    
     13      4      1      7       109.4           109.3           0.000    
     14      5      1      7       109.4           109.3           0.000    
     15      4      1      8       109.4           109.3           0.000    
     16      5      1      8       109.4           109.3           0.000    
     17      4      1      9       109.4           109.3           0.000    
     18      5      1      9       109.4           109.3           0.000    
     19      4      1     10       109.4           109.3           0.000    
     20      5      1     10       109.4           109.3           0.000    
     21      4      1     11       109.4           109.3           0.000    
     22      5      1     11       109.4           109.3           0.000    
     23      4      1     12       109.4           109.3           0.000    
     24      5      1     12       109.4           109.3           0.000    
     25      4      1     13       109.4           109.3           0.000    
     26      5      1     13       109.4           109.3           0.000    
     27      4      1     14       109.4           109.3           0.000    
     28      5      1     14       109.4           109.3           0.000    
     29      4      1     15       109.4           109.3           0.000    
     30      5      1     15       109.4           109.3           0.000    
     31      4      1     16       109.4           109.3           0.000    
     32      5      1     16       109.4           109.3           0.000    
     33      4      1     17       109.4           109.3           0.000    
     34      5      1     17       109.4           109.3           0.000    
     35      4     17     17       109.2           109.0           0.000    
     36      5     17     17       109.2           109.0           0.000    
     37      4     18     17       109.2           109.0           0.000    
     38      5     18     17       109.2           109.0           0.000    
     39      4     18     16       109.2           109.0           0.000    
     40      5     18     16       109.2           109.0           0.000    
     41      4     19     16       109.2           109.0           0.000    
     42      5     19     16       109.2           109.0           0.000    
     43      4     19     15       109.2           109.0           0.000    
     44      5     19     15       109.2           109.0           0.000    
     45      4     20     15       109.2           109.0           0.000    
     46      5     20     15       109.2           109.0           0.000    
     47      4     20     14       109.2           109.0           0.000    
     48      5     20     14       109.2           109.0           0.000    
     49      4     20     13       109.2           109.0           0.000    
     50      5     20     13       109.2           109.0           0.000    
     51      4     20     12       109.2           109.0           0.000    
     52      5     20     12       109.2           109.0           0.000    
     53      4     20     11       109.2           109.0           0.000    
     54      5     20     11       109.2           109.0           0.000    
     55      4     21     11       109.2           109.0           0.000    
     56      5     21     11       109.2           109.0           0.000    
     57      4     21     10       109.2           109.0           0.000    
     58      5     21     10       109.2           109.0           0.000    
     59      4     21      9       109.2           109.0           0.000    
     60      5     21      9       109.2           109.0           0.000    
     61      4     21      8       109.2           109.0           0.000    
     62      5     21      8       109.2           109.0           0.000    
     63      4     21      7       109.1           109.0           0.000    
     64      5     21      7       109.1           109.0           0.000    
     65      4     21      6       109.1           109.0           0.000    
     66      5     21      6       109.1           109.0           0.000    
     67      4     21      5       109.1           109.0           0.000    
     68      5     21      5       109.1           109.0           0.000    
     69      4     22      5       109.1           109.0           0.000    
     70      5     22      5       109.1           109.0           0.000    
     71      4     22      4       109.1           109.0           0.000    
     72      5     22      4       109.1           109.0           0.000    
     73      4     22      3       109.1           109.0           0.000    
     74      5     22      3       109.1           109.0           0.000    
     75      4     22      2       109.1           109.0           0.000    
     76      5     22      2       109.1           109.0           0.000    
     77      4     22      1       109.1           109.0           0.000    
     78      5     22      1       109.1           109.0           0.000    


     78 TIME-VARIANT SPECIFIED-HEAD CELLS

 SOLVING FOR HEAD 


     3 CALLS TO PCG ROUTINE FOR TIME STEP   1 IN STRESS PERIOD   23
    45 TOTAL ITERATIONS

 MAXIMUM HEAD CHANGE FOR EACH ITERATION (1 INDICATES THE FIRST INNER ITERATION):

    HEAD CHANGE    HEAD CHANGE    HEAD CHANGE    HEAD CHANGE    HEAD CHANGE 
   LAYER,ROW,COL  LAYER,ROW,COL  LAYER,ROW,COL  LAYER,ROW,COL  LAYER,ROW,COL
 ---------------------------------------------------------------------------
  1 -0.9912E-01  0  0.7831E-01  0 -0.6084E-01  0  0.4065E-01  0 -0.2929E-01
   (  5, 21,  2)  (  5, 20,  1)  (  5, 19,  1)  (  5, 17,  1)  (  5, 16,  1)
  0  0.1734E-01  0 -0.1685E-01  0  0.7245E-02  0 -0.4120E-02  0 -0.2673E-02
   (  5, 15,  1)  (  5, 18,  1)  (  5, 17,  1)  (  5, 11,  2)  (  5, 14,  4)
  0  0.2275E-02  0 -0.1601E-02  0  0.1206E-02  0 -0.5313E-03  0 -0.3744E-03
   (  5, 19,  1)  (  5, 16,  3)  (  5, 15,  3)  (  5, 15,  5)  (  5, 18,  2)
  0  0.2798E-03  0 -0.1779E-03  0 -0.1141E-03  0 -0.9707E-04  0 -0.8973E-04
   (  5, 17,  2)  (  5, 16,  3)  (  5, 14,  1)  (  5,  6,  1)  (  5, 15,  1)
  0  0.4768E-04  0 -0.3507E-04  0  0.1695E-04  0 -0.1213E-04  0 -0.1058E-04
   (  5, 16,  2)  (  5,  6,  1)  (  5,  6,  1)  (  5,  7,  1)  (  5, 18,  1)
  0  0.7493E-05  0  0.3419E-05  0 -0.3133E-05  0 -0.2048E-05  0 -0.1475E-05
   (  5, 19,  1)  (  5, 14,  4)  (  5,  8,  1)  (  5, 17,  4)  (  5, 19,  1)
  1  0.1895E-03  0 -0.1026E-03  0  0.1246E-03  0 -0.6611E-04  0  0.3644E-04
   (  5, 19,  3)  (  5, 18,  1)  (  5, 17,  1)  (  5, 15,  1)  (  5, 14,  1)
  0 -0.2437E-04  0  0.1855E-04  0 -0.1449E-04  0 -0.1167E-04  0  0.5842E-05
   (  5, 17,  2)  (  5, 12,  2)  (  5, 20,  2)  (  5, 16,  1)  (  5, 15,  1)
  0 -0.3423E-05  0 -0.2697E-05  0 -0.1407E-05  0 -0.9772E-06  1  0.8021E-06
   (  5, 13,  5)  (  5, 17,  4)  (  5, 11,  5)  (  5, 20,  1)  (  5, 20,  1)

 MAXIMUM RESIDUAL FOR EACH ITERATION (1 INDICATES THE FIRST INNER ITERATION):

    RESIDUAL       RESIDUAL       RESIDUAL       RESIDUAL       RESIDUAL    
   LAYER,ROW,COL  LAYER,ROW,COL  LAYER,ROW,COL  LAYER,ROW,COL  LAYER,ROW,COL
 ---------------------------------------------------------------------------
  1  0.1808E-02  0  0.1416E-02  0  0.9686E-03  0  0.6041E-03  0  0.3515E-03
   (  3, 17, 17)  (  3, 17, 17)  (  3, 17, 17)  (  3, 17, 17)  (  3, 17, 17)
  0  0.2176E-03  0  0.1335E-03  0  0.8955E-04  0  0.7050E-04  0  0.5238E-04
   (  3, 20, 11)  (  3, 20, 11)  (  4, 16, 17)  (  4, 16, 17)  (  4, 16, 17)
  0  0.3823E-04  0  0.2609E-04  0  0.1767E-04  0  0.1166E-04  0  0.7749E-05
   (  4, 16, 17)  (  4, 16, 17)  (  4, 16, 17)  (  4, 16, 17)  (  4, 16, 17)
  0 -0.5043E-05  0 -0.3407E-05  0 -0.2086E-05  0 -0.1266E-05  0 -0.8613E-06
   (  3, 21,  6)  (  3, 21,  6)  (  3, 21,  6)  (  3, 21,  6)  (  3, 21,  6)
  0 -0.4736E-06  0  0.2470E-06  0  0.1775E-06  0  0.1381E-06  0  0.1113E-06
   (  3, 21,  6)  (  5, 15, 17)  (  5, 15, 17)  (  3, 17, 17)  (  3, 17, 17)
  0  0.9040E-07  0  0.6456E-07  0  0.4347E-07  0  0.2897E-07  0  0.2127E-07
   (  3, 17, 17)  (  3, 17, 17)  (  3, 17, 17)  (  3, 17, 17)  (  3, 17, 17)
  1 -0.2735E-05  0 -0.1693E-05  0  0.1051E-05  0  0.7603E-06  0  0.5923E-06
   (  3, 19,  3)  (  3, 19,  3)  (  4, 19,  3)  (  4, 19,  3)  (  4, 19,  3)
  0  0.3707E-06  0  0.2108E-06  0  0.1131E-06  0 -0.1134E-06  0 -0.9528E-07
   (  4, 19,  3)  (  4, 19,  3)  (  4, 19,  3)  (  4, 18,  3)  (  4, 18,  3)
  0 -0.5973E-07  0 -0.4024E-07  0 -0.2580E-07  0  0.1782E-07  1  0.1503E-07
   (  4, 19,  2)  (  4, 19,  2)  (  4, 19,  2)  (  4, 18,  4)  (  4, 18,  4)



 OUTPUT CONTROL FOR STRESS PERIOD   23   TIME STEP    1
    SAVE HEAD FOR ALL LAYERS
    SAVE DRAWDOWN FOR ALL LAYERS
    SAVE BUDGET
    PRINT BUDGET
 UBDSV1 SAVING "         STORAGE" ON UNIT   9 AT TIME STEP  1, STRESS PERIOD  23
 UBDSV2 SAVING "   CONSTANT HEAD" ON UNIT   9 AT TIME STEP  1, STRESS PERIOD  23
 UBDSV1 SAVING "FLOW RIGHT FACE " ON UNIT   9 AT TIME STEP  1, STRESS PERIOD  23
 UBDSV1 SAVING "FLOW FRONT FACE " ON UNIT   9 AT TIME STEP  1, STRESS PERIOD  23
 UBDSV1 SAVING "FLOW LOWER FACE " ON UNIT   9 AT TIME STEP  1, STRESS PERIOD  23
 UBDSV3 SAVING "        RECHARGE" ON UNIT   9 AT TIME STEP  1, STRESS PERIOD  23

 HEAD WILL BE SAVED ON UNIT   37 AT END OF TIME STEP    1, STRESS PERIOD   23

 DRAWDOWN WILL BE SAVED ON UNIT   38 AT END OF TIME STEP    1, STRESS PERIOD   23
1
  VOLUMETRIC BUDGET FOR ENTIRE MODEL AT END OF TIME STEP    1, STRESS PERIOD  23
  ------------------------------------------------------------------------------

     CUMULATIVE VOLUMES      L**3       RATES FOR THIS TIME STEP      L**3/T
     ------------------                 ------------------------

           IN:                                      IN:
           ---                                      ---
             STORAGE =        6096.3726               STORAGE =       1.0322E-03
       CONSTANT HEAD =        6053.7266         CONSTANT HEAD =       2.1904E-03
            RECHARGE =         270.4342              RECHARGE =       9.7813E-05

            TOTAL IN =       12420.5342              TOTAL IN =       3.3204E-03

          OUT:                                     OUT:
          ----                                     ----
             STORAGE =         644.2308               STORAGE =           0.0000
       CONSTANT HEAD =       11776.5986         CONSTANT HEAD =       3.3204E-03
            RECHARGE =           0.0000              RECHARGE =           0.0000

           TOTAL OUT =       12420.8291             TOTAL OUT =       3.3204E-03

            IN - OUT =          -0.2949              IN - OUT =      -8.2189E-08

 PERCENT DISCREPANCY =          -0.00     PERCENT DISCREPANCY =          -0.00






         TIME SUMMARY AT END OF TIME STEP    1 IN STRESS PERIOD   23
                    SECONDS     MINUTES      HOURS       DAYS        YEARS
                    -----------------------------------------------------------
   TIME STEP LENGTH  86400.      1440.0      24.000      1.0000     2.73785E-03
 STRESS PERIOD TIME  86400.      1440.0      24.000      1.0000     2.73785E-03
         TOTAL TIME 2.76480E+06  46080.      768.00      32.000     8.76112E-02
1

 SOLVING FOR HEAD 
     3 CALLS TO PCG ROUTINE FOR TIME STEP   2 IN STRESS PERIOD   23
    48 TOTAL ITERATIONS

 MAXIMUM HEAD CHANGE FOR EACH ITERATION (1 INDICATES THE FIRST INNER ITERATION):

    HEAD CHANGE    HEAD CHANGE    HEAD CHANGE    HEAD CHANGE    HEAD CHANGE 
   LAYER,ROW,COL  LAYER,ROW,COL  LAYER,ROW,COL  LAYER,ROW,COL  LAYER,ROW,COL
 ---------------------------------------------------------------------------
  1 -0.1034      0  0.8222E-01  0 -0.6406E-01  0  0.4601E-01  0 -0.3303E-01
   (  5, 21,  2)  (  5, 20,  1)  (  5, 19,  1)  (  5, 17,  1)  (  5, 16,  1)
  0  0.1816E-01  0 -0.1676E-01  0  0.6210E-02  0 -0.4237E-02  0 -0.2665E-02
   (  5, 14,  1)  (  5, 18,  1)  (  5, 12,  2)  (  5, 11,  2)  (  5, 14,  4)
  0  0.2320E-02  0 -0.1661E-02  0  0.1262E-02  0 -0.5820E-03  0  0.3685E-03
   (  5, 19,  1)  (  5, 16,  3)  (  5, 15,  3)  (  5, 15,  5)  (  5, 14,  5)
  0  0.2638E-03  0 -0.1647E-03  0 -0.9692E-04  0 -0.1147E-03  0  0.6599E-04
   (  5, 17,  2)  (  5, 16,  2)  (  5, 14,  1)  (  5,  6,  1)  (  5, 17,  1)
  0 -0.6708E-04  0 -0.3340E-04  0 -0.1401E-04  0  0.1387E-04  0 -0.9936E-05
   (  5, 16,  1)  (  5,  6,  1)  (  5, 14,  4)  (  5, 13,  2)  (  5, 14,  1)
  0 -0.6070E-05  0  0.4444E-05  0 -0.2616E-05  0  0.1463E-05  0  0.1257E-05
   (  5, 15,  4)  (  5, 17,  5)  (  5,  8,  1)  (  5,  8,  1)  (  5, 16,  4)
  1  0.3017E-03  0  0.2181E-03  0  0.2515E-03  0 -0.1490E-03  0  0.1072E-03
   (  5, 10,  1)  (  3,  9,  3)  (  5, 14,  1)  (  5, 16,  1)  (  5, 17,  1)
  0 -0.7417E-04  0 -0.4839E-04  0 -0.4242E-04  0  0.2984E-04  0 -0.1860E-04
   (  5, 18,  1)  (  5, 16,  3)  (  5, 19,  1)  (  5, 20,  1)  (  5, 20,  1)
  0  0.6996E-05  0  0.5727E-05  0  0.4419E-05  0 -0.1959E-05  0  0.1494E-05
   (  5, 13,  3)  (  5,  8,  1)  (  5, 13,  5)  (  5, 18,  4)  (  5,  6,  2)
  0  0.1352E-05  0  0.5612E-06  1 -0.4497E-06
   (  5,  7,  1)  (  5,  6,  2)  (  5,  7,  2)

 MAXIMUM RESIDUAL FOR EACH ITERATION (1 INDICATES THE FIRST INNER ITERATION):

    RESIDUAL       RESIDUAL       RESIDUAL       RESIDUAL       RESIDUAL    
   LAYER,ROW,COL  LAYER,ROW,COL  LAYER,ROW,COL  LAYER,ROW,COL  LAYER,ROW,COL
 ---------------------------------------------------------------------------
  1  0.1804E-02  0  0.1420E-02  0  0.9798E-03  0  0.6232E-03  0  0.3791E-03
   (  3, 17, 17)  (  3, 17, 17)  (  3, 17, 17)  (  3, 17, 17)  (  3, 17, 17)
  0  0.2368E-03  0  0.1353E-03  0  0.8831E-04  0  0.6914E-04  0  0.5128E-04
   (  3, 20, 11)  (  3, 20, 11)  (  4, 16, 17)  (  4, 16, 17)  (  4, 16, 17)
  0  0.3744E-04  0  0.2566E-04  0  0.1750E-04  0  0.1153E-04  0  0.7577E-05
   (  4, 16, 17)  (  4, 16, 17)  (  4, 16, 17)  (  4, 16, 17)  (  4, 16, 17)
  0 -0.5142E-05  0 -0.3445E-05  0 -0.2072E-05  0 -0.1225E-05  0 -0.7154E-06
   (  3, 21,  6)  (  3, 21,  6)  (  3, 21,  6)  (  3, 21,  6)  (  3, 21,  6)
  0 -0.4665E-06  0  0.2537E-06  0  0.1864E-06  0  0.1453E-06  0  0.1086E-06
   (  3, 21,  6)  (  5, 15, 17)  (  5, 15, 17)  (  5, 15, 17)  (  3, 17, 17)
  0  0.8172E-07  0  0.5696E-07  0  0.3789E-07  0  0.2428E-07  0  0.1677E-07
   (  3, 17, 17)  (  3, 17, 17)  (  3, 17, 17)  (  3, 17, 17)  (  3, 17, 17)
  1 -0.3032E-05  0 -0.2219E-05  0 -0.1386E-05  0  0.8539E-06  0  0.6399E-06
   (  3, 10,  1)  (  3, 10,  1)  (  3, 10,  1)  (  4, 20,  3)  (  4, 20,  3)
  0  0.5330E-06  0  0.3735E-06  0  0.2485E-06  0  0.1329E-06  0 -0.1030E-06
   (  4, 20,  3)  (  4, 15,  4)  (  4, 20,  3)  (  4, 20,  3)  (  4,  9,  2)
  0  0.7919E-07  0  0.6847E-07  0  0.5602E-07  0  0.3372E-07  0  0.1820E-07
   (  4, 21,  2)  (  4, 21,  2)  (  4, 21,  2)  (  4, 21,  2)  (  4, 21,  2)
  0 -0.1222E-07  0 -0.7396E-08  1 -0.5946E-08
   (  4, 20,  2)  (  4, 20,  2)  (  4, 20,  2)



 OUTPUT CONTROL FOR STRESS PERIOD   23   TIME STEP    2
    SAVE HEAD FOR ALL LAYERS
    SAVE DRAWDOWN FOR ALL LAYERS
    SAVE BUDGET
    PRINT BUDGET
 UBDSV1 SAVING "         STORAGE" ON UNIT   9 AT TIME STEP  2, STRESS PERIOD  23
 UBDSV2 SAVING "   CONSTANT HEAD" ON UNIT   9 AT TIME STEP  2, STRESS PERIOD  23
 UBDSV1 SAVING "FLOW RIGHT FACE " ON UNIT   9 AT TIME STEP  2, STRESS PERIOD  23
 UBDSV1 SAVING "FLOW FRONT FACE " ON UNIT   9 AT TIME STEP  2, STRESS PERIOD  23
 UBDSV1 SAVING "FLOW LOWER FACE " ON UNIT   9 AT TIME STEP  2, STRESS PERIOD  23
 UBDSV3 SAVING "        RECHARGE" ON UNIT   9 AT TIME STEP  2, STRESS PERIOD  23

 HEAD WILL BE SAVED ON UNIT   37 AT END OF TIME STEP    2, STRESS PERIOD   23

 DRAWDOWN WILL BE SAVED ON UNIT   38 AT END OF TIME STEP    2, STRESS PERIOD   23
1
  VOLUMETRIC BUDGET FOR ENTIRE MODEL AT END OF TIME STEP    2, STRESS PERIOD  23
  ------------------------------------------------------------------------------

     CUMULATIVE VOLUMES      L**3       RATES FOR THIS TIME STEP      L**3/T
     ------------------                 ------------------------

           IN:                                      IN:
           ---                                      ---
             STORAGE =        6204.8916               STORAGE =       1.2560E-03
       CONSTANT HEAD =        6246.6147         CONSTANT HEAD =       2.2325E-03
            RECHARGE =         278.8853              RECHARGE =       9.7813E-05

            TOTAL IN =       12730.3916              TOTAL IN =       3.5863E-03

          OUT:                                     OUT:
          ----                                     ----
             STORAGE =         644.2308               STORAGE =           0.0000
       CONSTANT HEAD =       12086.4648         CONSTANT HEAD =       3.5864E-03
            RECHARGE =           0.0000              RECHARGE =           0.0000

           TOTAL OUT =       12730.6953             TOTAL OUT =       3.5864E-03

            IN - OUT =          -0.3037              IN - OUT =      -9.5461E-08

 PERCENT DISCREPANCY =          -0.00     PERCENT DISCREPANCY =          -0.00






         TIME SUMMARY AT END OF TIME STEP    2 IN STRESS PERIOD   23
                    SECONDS     MINUTES      HOURS       DAYS        YEARS
                    -----------------------------------------------------------
   TIME STEP LENGTH  86400.      1440.0      24.000      1.0000     2.73785E-03
 STRESS PERIOD TIME 1.72800E+05  2880.0      48.000      2.0000     5.47570E-03
         TOTAL TIME 2.85120E+06  47520.      792.00      33.000     9.03491E-02
1

 SOLVING FOR HEAD 
     3 CALLS TO PCG ROUTINE FOR TIME STEP   3 IN STRESS PERIOD   23
    47 TOTAL ITERATIONS

 MAXIMUM HEAD CHANGE FOR EACH ITERATION (1 INDICATES THE FIRST INNER ITERATION):

    HEAD CHANGE    HEAD CHANGE    HEAD CHANGE    HEAD CHANGE    HEAD CHANGE 
   LAYER,ROW,COL  LAYER,ROW,COL  LAYER,ROW,COL  LAYER,ROW,COL  LAYER,ROW,COL
 ---------------------------------------------------------------------------
  1 -0.1054      0  0.8436E-01  0 -0.6689E-01  0  0.4882E-01  0 -0.3231E-01
   (  5, 21,  2)  (  5, 20,  1)  (  5, 19,  1)  (  5, 17,  1)  (  5, 16,  1)
  0  0.1895E-01  0 -0.1515E-01  0 -0.6404E-02  0  0.4216E-02  0  0.2626E-02
   (  5, 19,  1)  (  5, 18,  1)  (  5, 19,  1)  (  5, 18,  1)  (  5, 19,  1)
  0  0.1964E-02  0 -0.1503E-02  0  0.1176E-02  0  0.4834E-03  0 -0.3379E-03
   (  5, 19,  1)  (  5, 16,  3)  (  5, 15,  3)  (  5, 18,  1)  (  5, 18,  2)
  0  0.2356E-03  0 -0.1521E-03  0 -0.1096E-03  0  0.9977E-04  0 -0.9359E-04
   (  5, 17,  2)  (  5, 16,  2)  (  5, 14,  1)  (  5, 17,  1)  (  5, 15,  1)
  0  0.5045E-04  0 -0.3289E-04  0  0.1934E-04  0 -0.1712E-04  0  0.9279E-05
   (  5,  6,  1)  (  5,  6,  1)  (  5, 18,  1)  (  5, 19,  2)  (  5, 18,  2)
  0 -0.7218E-05  0  0.4241E-05  0 -0.2311E-05  0 -0.1679E-05  0  0.1207E-05
   (  5, 15,  4)  (  5, 17,  5)  (  5,  8,  1)  (  5, 18,  2)  (  5, 18,  5)
  1  0.1894E-03  0  0.1743E-03  0 -0.1200E-03  0  0.6894E-04  0 -0.5910E-04
   (  5, 16,  4)  (  5, 12,  1)  (  5, 12,  1)  (  5, 13,  1)  (  5, 15,  1)
  0  0.4839E-04  0 -0.3793E-04  0  0.2520E-04  0 -0.1522E-04  0  0.8003E-05
   (  5, 16,  1)  (  5, 19,  1)  (  5, 19,  1)  (  5, 20,  2)  (  5, 16,  5)
  0 -0.7081E-05  0  0.5892E-05  0 -0.2921E-05  0 -0.1528E-05  0  0.1258E-05
   (  5, 20,  1)  (  5, 20,  2)  (  5, 20,  2)  (  5, 18,  3)  (  5,  6,  2)
  0  0.8677E-06  1 -0.5522E-06
   (  5, 14,  2)  (  5,  8,  1)

 MAXIMUM RESIDUAL FOR EACH ITERATION (1 INDICATES THE FIRST INNER ITERATION):

    RESIDUAL       RESIDUAL       RESIDUAL       RESIDUAL       RESIDUAL    
   LAYER,ROW,COL  LAYER,ROW,COL  LAYER,ROW,COL  LAYER,ROW,COL  LAYER,ROW,COL
 ---------------------------------------------------------------------------
  1  0.1794E-02  0  0.1412E-02  0  0.9716E-03  0  0.6265E-03  0  0.3928E-03
   (  3, 17, 17)  (  3, 17, 17)  (  3, 17, 17)  (  3, 17, 17)  (  3, 17, 17)
  0  0.2329E-03  0  0.1271E-03  0  0.8552E-04  0  0.6538E-04  0  0.4773E-04
   (  3, 20, 11)  (  3, 20, 11)  (  4, 16, 17)  (  4, 16, 17)  (  4, 16, 17)
  0  0.3494E-04  0  0.2397E-04  0  0.1625E-04  0  0.1068E-04  0  0.6922E-05
   (  4, 16, 17)  (  4, 16, 17)  (  4, 16, 17)  (  4, 16, 17)  (  4, 16, 17)
  0 -0.4806E-05  0 -0.3211E-05  0 -0.1953E-05  0 -0.1321E-05  0 -0.8362E-06
   (  3, 21,  6)  (  3, 21,  6)  (  3, 21,  6)  (  3, 21,  6)  (  3, 21,  6)
  0 -0.4258E-06  0  0.2435E-06  0  0.1862E-06  0  0.1409E-06  0  0.9956E-07
   (  3, 21,  5)  (  5, 15, 17)  (  5, 15, 17)  (  5, 15, 17)  (  5, 15, 17)
  0  0.7318E-07  0  0.5028E-07  0  0.3311E-07  0  0.2163E-07  0  0.1401E-07
   (  3, 17, 17)  (  3, 17, 17)  (  3, 17, 17)  (  3, 17, 17)  (  3, 17, 17)
  1 -0.2651E-05  0 -0.1518E-05  0 -0.8036E-06  0  0.5712E-06  0  0.4389E-06
   (  3, 11,  5)  (  3, 11,  5)  (  3, 11,  5)  (  4, 11,  5)  (  4, 16,  4)
  0  0.3471E-06  0  0.2700E-06  0  0.1742E-06  0  0.1192E-06  0  0.8778E-07
   (  4, 16,  4)  (  4, 21,  3)  (  4, 21,  3)  (  4, 21,  3)  (  4, 21,  3)
  0  0.6044E-07  0 -0.4512E-07  0 -0.3386E-07  0 -0.2119E-07  0 -0.1239E-07
   (  4, 21,  3)  (  4, 20,  3)  (  4, 20,  3)  (  4, 20,  3)  (  4, 21,  4)
  0 -0.8143E-08  1 -0.7056E-08
   (  4, 21,  4)  (  4, 21,  4)



 OUTPUT CONTROL FOR STRESS PERIOD   23   TIME STEP    3
    SAVE HEAD FOR ALL LAYERS
    SAVE DRAWDOWN FOR ALL LAYERS
    SAVE BUDGET
    PRINT BUDGET
 UBDSV1 SAVING "         STORAGE" ON UNIT   9 AT TIME STEP  3, STRESS PERIOD  23
 UBDSV2 SAVING "   CONSTANT HEAD" ON UNIT   9 AT TIME STEP  3, STRESS PERIOD  23
 UBDSV1 SAVING "FLOW RIGHT FACE " ON UNIT   9 AT TIME STEP  3, STRESS PERIOD  23
 UBDSV1 SAVING "FLOW FRONT FACE " ON UNIT   9 AT TIME STEP  3, STRESS PERIOD  23
 UBDSV1 SAVING "FLOW LOWER FACE " ON UNIT   9 AT TIME STEP  3, STRESS PERIOD  23
 UBDSV3 SAVING "        RECHARGE" ON UNIT   9 AT TIME STEP  3, STRESS PERIOD  23

 HEAD WILL BE SAVED ON UNIT   37 AT END OF TIME STEP    3, STRESS PERIOD   23

 DRAWDOWN WILL BE SAVED ON UNIT   38 AT END OF TIME STEP    3, STRESS PERIOD   23
1
  VOLUMETRIC BUDGET FOR ENTIRE MODEL AT END OF TIME STEP    3, STRESS PERIOD  23
  ------------------------------------------------------------------------------

     CUMULATIVE VOLUMES      L**3       RATES FOR THIS TIME STEP      L**3/T
     ------------------                 ------------------------

           IN:                                      IN:
           ---                                      ---
             STORAGE =        6320.9917               STORAGE =       1.3438E-03
       CONSTANT HEAD =        6447.8203         CONSTANT HEAD =       2.3288E-03
            RECHARGE =         287.3364              RECHARGE =       9.7813E-05

            TOTAL IN =       13056.1484              TOTAL IN =       3.7703E-03

          OUT:                                     OUT:
          ----                                     ----
             STORAGE =         644.2308               STORAGE =           0.0000
       CONSTANT HEAD =       12412.2285         CONSTANT HEAD =       3.7704E-03
            RECHARGE =           0.0000              RECHARGE =           0.0000

           TOTAL OUT =       13056.4590             TOTAL OUT =       3.7704E-03

            IN - OUT =          -0.3105              IN - OUT =      -8.2888E-08

 PERCENT DISCREPANCY =          -0.00     PERCENT DISCREPANCY =          -0.00






         TIME SUMMARY AT END OF TIME STEP    3 IN STRESS PERIOD   23
                    SECONDS     MINUTES      HOURS       DAYS        YEARS
                    -----------------------------------------------------------
   TIME STEP LENGTH  86400.      1440.0      24.000      1.0000     2.73785E-03
 STRESS PERIOD TIME 2.59200E+05  4320.0      72.000      3.0000     8.21355E-03
         TOTAL TIME 2.93760E+06  48960.      816.00      34.000     9.30869E-02
1

 SOLVING FOR HEAD 
     3 CALLS TO PCG ROUTINE FOR TIME STEP   4 IN STRESS PERIOD   23
    47 TOTAL ITERATIONS

 MAXIMUM HEAD CHANGE FOR EACH ITERATION (1 INDICATES THE FIRST INNER ITERATION):

    HEAD CHANGE    HEAD CHANGE    HEAD CHANGE    HEAD CHANGE    HEAD CHANGE 
   LAYER,ROW,COL  LAYER,ROW,COL  LAYER,ROW,COL  LAYER,ROW,COL  LAYER,ROW,COL
 ---------------------------------------------------------------------------
  1 -0.1064      0  0.8508E-01  0 -0.6707E-01  0  0.4886E-01  0 -0.3204E-01
   (  5, 21,  2)  (  5, 20,  1)  (  5, 19,  1)  (  5, 17,  1)  (  5, 16,  1)
  0  0.1890E-01  0 -0.1496E-01  0 -0.6528E-02  0  0.4170E-02  0 -0.2560E-02
   (  5, 19,  1)  (  5, 18,  1)  (  5, 19,  1)  (  5, 18,  1)  (  5, 14,  3)
  0  0.1996E-02  0 -0.1550E-02  0  0.1189E-02  0 -0.4887E-03  0 -0.3121E-03
   (  5, 19,  1)  (  5, 16,  3)  (  5, 15,  3)  (  5, 15,  4)  (  5, 18,  2)
  0  0.2184E-03  0 -0.1593E-03  0 -0.8399E-04  0 -0.1028E-03  0  0.8153E-04
   (  5, 17,  2)  (  5, 16,  2)  (  5,  7,  2)  (  5,  6,  1)  (  5, 17,  1)
  0 -0.5761E-04  0 -0.3506E-04  0 -0.1906E-04  0  0.1265E-04  0  0.1194E-04
   (  5, 16,  1)  (  5,  6,  1)  (  5, 14,  4)  (  5, 14,  2)  (  5, 19,  1)
  0 -0.6044E-05  0  0.3362E-05  0  0.2104E-05  0 -0.1712E-05  0 -0.1098E-05
   (  5, 15,  4)  (  5, 17,  5)  (  5, 19,  2)  (  5, 17,  4)  (  5, 12,  5)
  1  0.1783E-03  0  0.1383E-03  0 -0.9910E-04  0  0.6394E-04  0 -0.4764E-04
   (  5, 17,  4)  (  5, 10,  1)  (  5, 12,  1)  (  5, 12,  1)  (  5, 15,  1)
  0  0.4267E-04  0 -0.3481E-04  0  0.2389E-04  0 -0.1298E-04  0  0.6533E-05
   (  5, 15,  1)  (  5, 18,  1)  (  5, 18,  1)  (  5, 19,  1)  (  5, 19,  1)
  0 -0.5591E-05  0  0.5006E-05  0  0.2463E-05  0 -0.1237E-05  0  0.1106E-05
   (  5, 20,  1)  (  5, 20,  2)  (  5, 17,  1)  (  5,  6,  1)  (  5,  6,  1)
  0  0.5574E-06  1 -0.4264E-06
   (  5, 14,  2)  (  5, 14,  2)

 MAXIMUM RESIDUAL FOR EACH ITERATION (1 INDICATES THE FIRST INNER ITERATION):

    RESIDUAL       RESIDUAL       RESIDUAL       RESIDUAL       RESIDUAL    
   LAYER,ROW,COL  LAYER,ROW,COL  LAYER,ROW,COL  LAYER,ROW,COL  LAYER,ROW,COL
 ---------------------------------------------------------------------------
  1  0.1785E-02  0  0.1405E-02  0  0.9665E-03  0  0.6230E-03  0  0.3895E-03
   (  3, 17, 17)  (  3, 17, 17)  (  3, 17, 17)  (  3, 17, 17)  (  3, 17, 17)
  0  0.2301E-03  0  0.1253E-03  0  0.8484E-04  0  0.6462E-04  0  0.4721E-04
   (  3, 20, 11)  (  3, 20, 11)  (  4, 16, 17)  (  4, 16, 17)  (  4, 16, 17)
  0  0.3448E-04  0  0.2363E-04  0  0.1593E-04  0  0.1042E-04  0 -0.6843E-05
   (  4, 16, 17)  (  4, 16, 17)  (  4, 16, 17)  (  4, 16, 17)  (  3, 21,  6)
  0 -0.4751E-05  0 -0.3174E-05  0 -0.1902E-05  0 -0.1136E-05  0 -0.7444E-06
   (  3, 21,  6)  (  3, 21,  6)  (  3, 21,  6)  (  3, 21,  6)  (  3, 21,  6)
  0 -0.4180E-06  0  0.2391E-06  0  0.1714E-06  0  0.1276E-06  0  0.9636E-07
   (  3, 21,  5)  (  5, 15, 17)  (  5, 15, 17)  (  5, 15, 17)  (  5, 15, 17)
  0  0.7087E-07  0  0.4859E-07  0  0.3203E-07  0  0.2106E-07  0  0.1357E-07
   (  3, 17, 17)  (  3, 17, 17)  (  3, 17, 17)  (  3, 17, 17)  (  3, 17, 17)
  1 -0.2347E-05  0 -0.1250E-05  0  0.7643E-06  0  0.5390E-06  0  0.4402E-06
   (  3, 17,  4)  (  3, 17,  4)  (  4, 17,  4)  (  4, 17,  4)  (  4, 17,  4)
  0  0.3255E-06  0  0.2280E-06  0  0.1231E-06  0 -0.9279E-07  0  0.6773E-07
   (  4, 17,  4)  (  4, 17,  4)  (  4, 17,  4)  (  4, 17,  3)  (  3, 17,  4)
  0  0.5171E-07  0  0.3652E-07  0  0.2564E-07  0  0.1740E-07  0  0.1287E-07
   (  3, 17,  4)  (  3, 17,  4)  (  4, 21,  2)  (  4, 18,  3)  (  4, 18,  3)
  0  0.6733E-08  1  0.6551E-08
   (  4, 18,  3)  (  4, 18,  3)



 OUTPUT CONTROL FOR STRESS PERIOD   23   TIME STEP    4
    SAVE HEAD FOR ALL LAYERS
    SAVE DRAWDOWN FOR ALL LAYERS
    SAVE BUDGET
    PRINT BUDGET
 UBDSV1 SAVING "         STORAGE" ON UNIT   9 AT TIME STEP  4, STRESS PERIOD  23
 UBDSV2 SAVING "   CONSTANT HEAD" ON UNIT   9 AT TIME STEP  4, STRESS PERIOD  23
 UBDSV1 SAVING "FLOW RIGHT FACE " ON UNIT   9 AT TIME STEP  4, STRESS PERIOD  23
 UBDSV1 SAVING "FLOW FRONT FACE " ON UNIT   9 AT TIME STEP  4, STRESS PERIOD  23
 UBDSV1 SAVING "FLOW LOWER FACE " ON UNIT   9 AT TIME STEP  4, STRESS PERIOD  23
 UBDSV3 SAVING "        RECHARGE" ON UNIT   9 AT TIME STEP  4, STRESS PERIOD  23

 HEAD WILL BE SAVED ON UNIT   37 AT END OF TIME STEP    4, STRESS PERIOD   23

 DRAWDOWN WILL BE SAVED ON UNIT   38 AT END OF TIME STEP    4, STRESS PERIOD   23
1
  VOLUMETRIC BUDGET FOR ENTIRE MODEL AT END OF TIME STEP    4, STRESS PERIOD  23
  ------------------------------------------------------------------------------

     CUMULATIVE VOLUMES      L**3       RATES FOR THIS TIME STEP      L**3/T
     ------------------                 ------------------------

           IN:                                      IN:
           ---                                      ---
             STORAGE =        6440.3159               STORAGE =       1.3811E-03
       CONSTANT HEAD =        6659.0825         CONSTANT HEAD =       2.4452E-03
            RECHARGE =         295.7874              RECHARGE =       9.7813E-05

            TOTAL IN =       13395.1855              TOTAL IN =       3.9240E-03

          OUT:                                     OUT:
          ----                                     ----
             STORAGE =         644.2308               STORAGE =           0.0000
       CONSTANT HEAD =       12751.2744         CONSTANT HEAD =       3.9241E-03
            RECHARGE =           0.0000              RECHARGE =           0.0000

           TOTAL OUT =       13395.5049             TOTAL OUT =       3.9241E-03

            IN - OUT =          -0.3193              IN - OUT =      -9.2201E-08

 PERCENT DISCREPANCY =          -0.00     PERCENT DISCREPANCY =          -0.00






         TIME SUMMARY AT END OF TIME STEP    4 IN STRESS PERIOD   23
                    SECONDS     MINUTES      HOURS       DAYS        YEARS
                    -----------------------------------------------------------
   TIME STEP LENGTH  86400.      1440.0      24.000      1.0000     2.73785E-03
 STRESS PERIOD TIME 3.45600E+05  5760.0      96.000      4.0000     1.09514E-02
         TOTAL TIME 3.02400E+06  50400.      840.00      35.000     9.58248E-02
1
1
                            STRESS PERIOD NO.   24, LENGTH =   86400.00    
                            -----------------------------------------------

                              NUMBER OF TIME STEPS =     1

                               MULTIPLIER FOR DELT =     1.000

                            INITIAL TIME STEP SIZE =   86400.00    

 REUSING RECH FROM LAST STRESS PERIOD

 CHD NO.   LAYER   ROW   COL    START HEAD        END HEAD         IFACE           
 ----------------------------------------------------------------------------------
      1      4      1      1       109.3           109.3           0.000    
      2      5      1      1       109.3           109.3           0.000    
      3      4      1      2       109.3           109.3           0.000    
      4      5      1      2       109.3           109.3           0.000    
      5      4      1      3       109.3           109.3           0.000    
      6      5      1      3       109.3           109.3           0.000    
      7      4      1      4       109.3           109.3           0.000    
      8      5      1      4       109.3           109.3           0.000    
      9      4      1      5       109.3           109.3           0.000    
     10      5      1      5       109.3           109.3           0.000    
     11      4      1      6       109.3           109.3           0.000    
     12      5      1      6       109.3           109.3           0.000    
     13      4      1      7       109.3           109.3           0.000    
     14      5      1      7       109.3           109.3           0.000    
     15      4      1      8       109.3           109.3           0.000    
     16      5      1      8       109.3           109.3           0.000    
     17      4      1      9       109.3           109.3           0.000    
     18      5      1      9       109.3           109.3           0.000    
     19      4      1     10       109.3           109.3           0.000    
     20      5      1     10       109.3           109.3           0.000    
     21      4      1     11       109.3           109.3           0.000    
     22      5      1     11       109.3           109.3           0.000    
     23      4      1     12       109.3           109.3           0.000    
     24      5      1     12       109.3           109.3           0.000    
     25      4      1     13       109.3           109.3           0.000    
     26      5      1     13       109.3           109.3           0.000    
     27      4      1     14       109.3           109.3           0.000    
     28      5      1     14       109.3           109.3           0.000    
     29      4      1     15       109.3           109.3           0.000    
     30      5      1     15       109.3           109.3           0.000    
     31      4      1     16       109.3           109.3           0.000    
     32      5      1     16       109.3           109.3           0.000    
     33      4      1     17       109.3           109.3           0.000    
     34      5      1     17       109.3           109.3           0.000    
     35      4     17     17       109.0           109.1           0.000    
     36      5     17     17       109.0           109.1           0.000    
     37      4     18     17       109.0           109.1           0.000    
     38      5     18     17       109.0           109.1           0.000    
     39      4     18     16       109.0           109.1           0.000    
     40      5     18     16       109.0           109.1           0.000    
     41      4     19     16       109.0           109.1           0.000    
     42      5     19     16       109.0           109.1           0.000    
     43      4     19     15       109.0           109.1           0.000    
     44      5     19     15       109.0           109.1           0.000    
     45      4     20     15       109.0           109.1           0.000    
     46      5     20     15       109.0           109.1           0.000    
     47      4     20     14       109.0           109.1           0.000    
     48      5     20     14       109.0           109.1           0.000    
     49      4     20     13       109.0           109.1           0.000    
     50      5     20     13       109.0           109.1           0.000    
     51      4     20     12       109.0           109.1           0.000    
     52      5     20     12       109.0           109.1           0.000    
     53      4     20     11       109.0           109.1           0.000    
     54      5     20     11       109.0           109.1           0.000    
     55      4     21     11       109.0           109.1           0.000    
     56      5     21     11       109.0           109.1           0.000    
     57      4     21     10       109.0           109.1           0.000    
     58      5     21     10       109.0           109.1           0.000    
     59      4     21      9       109.0           109.1           0.000    
     60      5     21      9       109.0           109.1           0.000    
     61      4     21      8       109.0           109.1           0.000    
     62      5     21      8       109.0           109.1           0.000    
     63      4     21      7       109.0           109.1           0.000    
     64      5     21      7       109.0           109.1           0.000    
     65      4     21      6       109.0           109.1           0.000    
     66      5     21      6       109.0           109.1           0.000    
     67      4     21      5       109.0           109.1           0.000    
     68      5     21      5       109.0           109.1           0.000    
     69      4     22      5       109.0           109.1           0.000    
     70      5     22      5       109.0           109.1           0.000    
     71      4     22      4       109.0           109.1           0.000    
     72      5     22      4       109.0           109.1           0.000    
     73      4     22      3       109.0           109.1           0.000    
     74      5     22      3       109.0           109.1           0.000    
     75      4     22      2       109.0           109.1           0.000    
     76      5     22      2       109.0           109.1           0.000    
     77      4     22      1       109.0           109.1           0.000    
     78      5     22      1       109.0           109.1           0.000    


     78 TIME-VARIANT SPECIFIED-HEAD CELLS

 SOLVING FOR HEAD 


     3 CALLS TO PCG ROUTINE FOR TIME STEP   1 IN STRESS PERIOD   24
    47 TOTAL ITERATIONS

 MAXIMUM HEAD CHANGE FOR EACH ITERATION (1 INDICATES THE FIRST INNER ITERATION):

    HEAD CHANGE    HEAD CHANGE    HEAD CHANGE    HEAD CHANGE    HEAD CHANGE 
   LAYER,ROW,COL  LAYER,ROW,COL  LAYER,ROW,COL  LAYER,ROW,COL  LAYER,ROW,COL
 ---------------------------------------------------------------------------
  1  0.2436      0 -0.1897      0  0.1419      0  0.9913E-01  0 -0.6832E-01
   (  5, 21,  2)  (  5, 20,  1)  (  5, 19,  1)  (  5, 20,  1)  (  5, 19,  1)
  0  0.4071E-01  0 -0.2559E-01  0  0.2052E-01  0 -0.1629E-01  0  0.6865E-02
   (  5, 18,  1)  (  5, 16,  1)  (  5, 19,  1)  (  5, 18,  1)  (  5, 14,  3)
  0 -0.5476E-02  0  0.3680E-02  0 -0.2596E-02  0 -0.1352E-02  0 -0.8880E-03
   (  5, 19,  1)  (  5, 16,  3)  (  5, 15,  3)  (  5, 19,  3)  (  5,  6,  2)
  0 -0.5850E-03  0  0.3697E-03  0 -0.2482E-03  0  0.2823E-03  0 -0.1678E-03
   (  5, 17,  2)  (  5, 16,  2)  (  5,  6,  1)  (  5,  6,  1)  (  5,  6,  1)
  0  0.1084E-03  0 -0.9890E-04  0  0.4339E-04  0 -0.4001E-04  0  0.1736E-04
   (  5, 18,  2)  (  5, 18,  1)  (  5, 17,  1)  (  5, 15,  1)  (  5, 12,  1)
  0  0.1226E-04  0 -0.8142E-05  0  0.5606E-05  0 -0.3675E-05  0 -0.2713E-05
   (  5, 15,  4)  (  5, 12,  6)  (  5, 11,  6)  (  5, 10,  6)  (  5, 16,  4)
  1  0.3112E-03  0  0.2470E-03  0 -0.1808E-03  0  0.1046E-03  0 -0.1005E-03
   (  5, 17,  4)  (  5, 14,  1)  (  5, 18,  5)  (  5, 19,  1)  (  5, 18,  1)
  0 -0.3682E-04  0 -0.4578E-04  0  0.2536E-04  0 -0.2365E-04  0  0.1323E-04
   (  5, 21,  4)  (  5, 20,  1)  (  5, 19,  1)  (  5, 20,  2)  (  5, 20,  1)
  0 -0.9160E-05  0  0.5782E-05  0 -0.3237E-05  0  0.2078E-05  0 -0.1462E-05
   (  5, 19,  1)  (  5, 20,  2)  (  5, 20,  1)  (  5, 15,  4)  (  5, 18,  1)
  0  0.7290E-06  1  0.4251E-06
   (  5, 18,  2)  (  5,  7,  1)

 MAXIMUM RESIDUAL FOR EACH ITERATION (1 INDICATES THE FIRST INNER ITERATION):

    RESIDUAL       RESIDUAL       RESIDUAL       RESIDUAL       RESIDUAL    
   LAYER,ROW,COL  LAYER,ROW,COL  LAYER,ROW,COL  LAYER,ROW,COL  LAYER,ROW,COL
 ---------------------------------------------------------------------------
  1 -0.4706E-02  0 -0.3696E-02  0 -0.2508E-02  0 -0.1539E-02  0 -0.8860E-03
   (  3, 17, 17)  (  3, 17, 17)  (  3, 17, 17)  (  3, 17, 17)  (  3, 20, 11)
  0 -0.5092E-03  0 -0.3077E-03  0 -0.2241E-03  0 -0.1753E-03  0 -0.1298E-03
   (  3, 20, 11)  (  3, 20, 11)  (  4, 16, 17)  (  4, 16, 17)  (  4, 16, 17)
  0 -0.9469E-04  0 -0.6463E-04  0 -0.4341E-04  0 -0.2867E-04  0 -0.1912E-04
   (  4, 16, 17)  (  4, 16, 17)  (  4, 16, 17)  (  4, 16, 17)  (  4, 16, 17)
  0 -0.1196E-04  0 -0.7424E-05  0  0.4298E-05  0  0.2466E-05  0  0.1288E-05
   (  4, 16, 17)  (  4, 16, 17)  (  3, 21,  6)  (  3, 21,  6)  (  3, 21,  5)
  0  0.8409E-06  0 -0.6202E-06  0 -0.4832E-06  0 -0.4090E-06  0 -0.3250E-06
   (  3, 21,  5)  (  3, 17, 17)  (  3, 17, 17)  (  3, 17, 17)  (  3, 17, 17)
  0 -0.2379E-06  0 -0.1629E-06  0 -0.1077E-06  0 -0.6967E-07  0 -0.4554E-07
   (  3, 17, 17)  (  3, 17, 17)  (  3, 17, 17)  (  3, 17, 17)  (  3, 17, 17)
  1 -0.2711E-05  0  0.1413E-05  0  0.1257E-05  0  0.9920E-06  0  0.7608E-06
   (  3, 17,  4)  (  4, 17,  4)  (  4, 17,  4)  (  4, 21,  3)  (  4, 21,  3)
  0  0.4853E-06  0  0.3118E-06  0  0.2113E-06  0  0.1442E-06  0  0.1013E-06
   (  4, 21,  3)  (  4, 21,  3)  (  3, 17,  4)  (  3, 17,  4)  (  3, 17,  4)
  0  0.6754E-07  0  0.4697E-07  0  0.3144E-07  0 -0.2403E-07  0 -0.1609E-07
   (  3, 17,  4)  (  3, 17,  4)  (  4, 16,  5)  (  4, 21,  4)  (  4, 21,  4)
  0 -0.8420E-08  1 -0.7400E-08
   (  4, 21,  3)  (  4, 21,  4)



 OUTPUT CONTROL FOR STRESS PERIOD   24   TIME STEP    1
    SAVE HEAD FOR ALL LAYERS
    SAVE DRAWDOWN FOR ALL LAYERS
    SAVE BUDGET
    PRINT BUDGET
 UBDSV1 SAVING "         STORAGE" ON UNIT   9 AT TIME STEP  1, STRESS PERIOD  24
 UBDSV2 SAVING "   CONSTANT HEAD" ON UNIT   9 AT TIME STEP  1, STRESS PERIOD  24
 UBDSV1 SAVING "FLOW RIGHT FACE " ON UNIT   9 AT TIME STEP  1, STRESS PERIOD  24
 UBDSV1 SAVING "FLOW FRONT FACE " ON UNIT   9 AT TIME STEP  1, STRESS PERIOD  24
 UBDSV1 SAVING "FLOW LOWER FACE " ON UNIT   9 AT TIME STEP  1, STRESS PERIOD  24
 UBDSV3 SAVING "        RECHARGE" ON UNIT   9 AT TIME STEP  1, STRESS PERIOD  24

 HEAD WILL BE SAVED ON UNIT   37 AT END OF TIME STEP    1, STRESS PERIOD   24

 DRAWDOWN WILL BE SAVED ON UNIT   38 AT END OF TIME STEP    1, STRESS PERIOD   24
1
  VOLUMETRIC BUDGET FOR ENTIRE MODEL AT END OF TIME STEP    1, STRESS PERIOD  24
  ------------------------------------------------------------------------------

     CUMULATIVE VOLUMES      L**3       RATES FOR THIS TIME STEP      L**3/T
     ------------------                 ------------------------

           IN:                                      IN:
           ---                                      ---
             STORAGE =        6446.2637               STORAGE =       6.8839E-05
       CONSTANT HEAD =        6838.1387         CONSTANT HEAD =       2.0724E-03
            RECHARGE =         304.2385              RECHARGE =       9.7813E-05

            TOTAL IN =       13588.6406              TOTAL IN =       2.2391E-03

          OUT:                                     OUT:
          ----                                     ----
             STORAGE =         748.4177               STORAGE =       1.2059E-03
       CONSTANT HEAD =       12840.5498         CONSTANT HEAD =       1.0333E-03
            RECHARGE =           0.0000              RECHARGE =           0.0000

           TOTAL OUT =       13588.9678             TOTAL OUT =       2.2392E-03

            IN - OUT =          -0.3271              IN - OUT =      -9.1270E-08

 PERCENT DISCREPANCY =          -0.00     PERCENT DISCREPANCY =          -0.00






         TIME SUMMARY AT END OF TIME STEP    1 IN STRESS PERIOD   24
                    SECONDS     MINUTES      HOURS       DAYS        YEARS
                    -----------------------------------------------------------
   TIME STEP LENGTH  86400.      1440.0      24.000      1.0000     2.73785E-03
 STRESS PERIOD TIME  86400.      1440.0      24.000      1.0000     2.73785E-03
         TOTAL TIME 3.11040E+06  51840.      864.00      36.000     9.85626E-02
1
1
                            STRESS PERIOD NO.   25, LENGTH =   86400.00    
                            -----------------------------------------------

                              NUMBER OF TIME STEPS =     1

                               MULTIPLIER FOR DELT =     1.000

                            INITIAL TIME STEP SIZE =   86400.00    

 REUSING RECH FROM LAST STRESS PERIOD

 CHD NO.   LAYER   ROW   COL    START HEAD        END HEAD         IFACE           
 ----------------------------------------------------------------------------------
      1      4      1      1       109.3           109.4           0.000    
      2      5      1      1       109.3           109.4           0.000    
      3      4      1      2       109.3           109.4           0.000    
      4      5      1      2       109.3           109.4           0.000    
      5      4      1      3       109.3           109.4           0.000    
      6      5      1      3       109.3           109.4           0.000    
      7      4      1      4       109.3           109.4           0.000    
      8      5      1      4       109.3           109.4           0.000    
      9      4      1      5       109.3           109.4           0.000    
     10      5      1      5       109.3           109.4           0.000    
     11      4      1      6       109.3           109.4           0.000    
     12      5      1      6       109.3           109.4           0.000    
     13      4      1      7       109.3           109.4           0.000    
     14      5      1      7       109.3           109.4           0.000    
     15      4      1      8       109.3           109.4           0.000    
     16      5      1      8       109.3           109.4           0.000    
     17      4      1      9       109.3           109.4           0.000    
     18      5      1      9       109.3           109.4           0.000    
     19      4      1     10       109.3           109.4           0.000    
     20      5      1     10       109.3           109.4           0.000    
     21      4      1     11       109.3           109.4           0.000    
     22      5      1     11       109.3           109.4           0.000    
     23      4      1     12       109.3           109.4           0.000    
     24      5      1     12       109.3           109.4           0.000    
     25      4      1     13       109.3           109.4           0.000    
     26      5      1     13       109.3           109.4           0.000    
     27      4      1     14       109.3           109.4           0.000    
     28      5      1     14       109.3           109.4           0.000    
     29      4      1     15       109.3           109.4           0.000    
     30      5      1     15       109.3           109.4           0.000    
     31      4      1     16       109.3           109.4           0.000    
     32      5      1     16       109.3           109.4           0.000    
     33      4      1     17       109.3           109.4           0.000    
     34      5      1     17       109.3           109.4           0.000    
     35      4     17     17       109.1           109.4           0.000    
     36      5     17     17       109.1           109.4           0.000    
     37      4     18     17       109.1           109.4           0.000    
     38      5     18     17       109.1           109.4           0.000    
     39      4     18     16       109.1           109.4           0.000    
     40      5     18     16       109.1           109.4           0.000    
     41      4     19     16       109.1           109.4           0.000    
     42      5     19     16       109.1           109.4           0.000    
     43      4     19     15       109.1           109.4           0.000    
     44      5     19     15       109.1           109.4           0.000    
     45      4     20     15       109.1           109.4           0.000    
     46      5     20     15       109.1           109.4           0.000    
     47      4     20     14       109.1           109.4           0.000    
     48      5     20     14       109.1           109.4           0.000    
     49      4     20     13       109.1           109.4           0.000    
     50      5     20     13       109.1           109.4           0.000    
     51      4     20     12       109.1           109.4           0.000    
     52      5     20     12       109.1           109.4           0.000    
     53      4     20     11       109.1           109.4           0.000    
     54      5     20     11       109.1           109.4           0.000    
     55      4     21     11       109.1           109.4           0.000    
     56      5     21     11       109.1           109.4           0.000    
     57      4     21     10       109.1           109.4           0.000    
     58      5     21     10       109.1           109.4           0.000    
     59      4     21      9       109.1           109.4           0.000    
     60      5     21      9       109.1           109.4           0.000    
     61      4     21      8       109.1           109.4           0.000    
     62      5     21      8       109.1           109.4           0.000    
     63      4     21      7       109.1           109.4           0.000    
     64      5     21      7       109.1           109.4           0.000    
     65      4     21      6       109.1           109.4           0.000    
     66      5     21      6       109.1           109.4           0.000    
     67      4     21      5       109.1           109.4           0.000    
     68      5     21      5       109.1           109.4           0.000    
     69      4     22      5       109.1           109.4           0.000    
     70      5     22      5       109.1           109.4           0.000    
     71      4     22      4       109.1           109.4           0.000    
     72      5     22      4       109.1           109.4           0.000    
     73      4     22      3       109.1           109.4           0.000    
     74      5     22      3       109.1           109.4           0.000    
     75      4     22      2       109.1           109.4           0.000    
     76      5     22      2       109.1           109.4           0.000    
     77      4     22      1       109.1           109.4           0.000    
     78      5     22      1       109.1           109.4           0.000    


     78 TIME-VARIANT SPECIFIED-HEAD CELLS

 SOLVING FOR HEAD 


     4 CALLS TO PCG ROUTINE FOR TIME STEP   1 IN STRESS PERIOD   25
    71 TOTAL ITERATIONS

 MAXIMUM HEAD CHANGE FOR EACH ITERATION (1 INDICATES THE FIRST INNER ITERATION):

    HEAD CHANGE    HEAD CHANGE    HEAD CHANGE    HEAD CHANGE    HEAD CHANGE 
   LAYER,ROW,COL  LAYER,ROW,COL  LAYER,ROW,COL  LAYER,ROW,COL  LAYER,ROW,COL
 ---------------------------------------------------------------------------
  1  0.8971      0 -0.7103      0  0.5633      0 -0.3801      0  0.2835    
   (  5, 21,  2)  (  5, 20,  1)  (  5, 19,  1)  (  5, 17,  1)  (  5, 16,  1)
  0 -0.1575      0  0.1487      0 -0.5348E-01  0 -0.3686E-01  0  0.2438E-01
   (  5, 15,  1)  (  5, 18,  1)  (  5, 12,  2)  (  5, 18,  1)  (  5, 14,  3)
  0 -0.1802E-01  0  0.1355E-01  0 -0.9780E-02  0 -0.4588E-02  0  0.2746E-02
   (  5, 19,  1)  (  5, 16,  3)  (  5, 15,  3)  (  5, 19,  3)  (  5, 18,  2)
  0 -0.2107E-02  0  0.1378E-02  0  0.7508E-03  0  0.9266E-03  0  0.6711E-03
   (  5, 17,  2)  (  5, 16,  2)  (  5,  7,  2)  (  5,  6,  1)  (  5, 16,  1)
  0 -0.4202E-03  0  0.2920E-03  0  0.1542E-03  0 -0.8637E-04  0  0.8441E-04
   (  5, 17,  1)  (  5,  6,  1)  (  5, 14,  4)  (  5, 16,  4)  (  5, 18,  1)
  0 -0.5919E-04  0 -0.2651E-04  0 -0.1714E-04  0  0.1585E-04  0 -0.1217E-04
   (  5, 19,  1)  (  5, 17,  5)  (  5, 15,  4)  (  5, 17,  4)  (  5, 16,  4)
  1  0.5364E-02  0 -0.4815E-02  0  0.5689E-02  0 -0.3143E-02  0  0.1945E-02
   (  5, 20,  3)  (  5, 19,  1)  (  5, 17,  1)  (  5, 15,  1)  (  5, 14,  1)
  0 -0.1232E-02  0 -0.1225E-02  0 -0.7847E-03  0 -0.4678E-03  0 -0.3691E-03
   (  5, 18,  2)  (  5, 20,  1)  (  5, 16,  1)  (  5, 12,  2)  (  5, 15,  2)
  0 -0.1951E-03  0 -0.1399E-03  0 -0.7332E-04  0  0.6083E-04  0  0.5348E-04
   (  5, 10,  1)  (  5, 15,  4)  (  5, 10,  3)  (  5, 14,  4)  (  5, 19,  1)
  0 -0.5692E-04  0  0.2926E-04  0  0.1449E-04  0  0.1204E-04  0  0.6460E-05
   (  5, 18,  1)  (  5, 19,  1)  (  5,  6,  1)  (  5, 14,  4)  (  5, 19,  3)
  0  0.4967E-05  0  0.3100E-05  0 -0.3016E-05  0  0.1979E-05  0  0.1551E-05
   (  5, 13,  5)  (  5, 16,  4)  (  5, 16,  2)  (  5, 13,  1)  (  5, 20,  1)
  0 -0.8719E-06  1  0.3668E-04  0 -0.3535E-04  0  0.5260E-04  0 -0.3202E-04
   (  5, 21,  1)  (  5, 18,  2)  (  5, 19,  1)  (  5, 20,  1)  (  5, 20,  1)
  0 -0.1656E-04  0  0.1315E-04  0 -0.8289E-05  0 -0.5821E-05  0  0.3818E-05
   (  5, 17,  2)  (  5, 14,  1)  (  5, 15,  3)  (  5, 21,  1)  (  5, 15,  3)
  0 -0.2796E-05  0  0.1629E-05  0  0.1191E-05  0  0.1054E-05  0 -0.9640E-06
   (  5, 14,  2)  (  5, 15,  5)  (  5, 11,  3)  (  5, 19,  1)  (  5, 18,  1)
  1  0.7612E-06
   (  5, 18,  1)

 MAXIMUM RESIDUAL FOR EACH ITERATION (1 INDICATES THE FIRST INNER ITERATION):

    RESIDUAL       RESIDUAL       RESIDUAL       RESIDUAL       RESIDUAL    
   LAYER,ROW,COL  LAYER,ROW,COL  LAYER,ROW,COL  LAYER,ROW,COL  LAYER,ROW,COL
 ---------------------------------------------------------------------------
  1 -0.1680E-01  0 -0.1322E-01  0 -0.9014E-02  0 -0.5604E-02  0 -0.3380E-02
   (  3, 17, 17)  (  3, 17, 17)  (  3, 17, 17)  (  3, 17, 17)  (  3, 20, 11)
  0 -0.2172E-02  0 -0.1277E-02  0 -0.8141E-03  0 -0.6256E-03  0 -0.4605E-03
   (  3, 20, 11)  (  3, 20, 11)  (  4, 16, 17)  (  4, 16, 17)  (  4, 16, 17)
  0 -0.3373E-03  0 -0.2311E-03  0 -0.1556E-03  0 -0.1024E-03  0 -0.6774E-04
   (  4, 16, 17)  (  4, 16, 17)  (  4, 16, 17)  (  4, 16, 17)  (  4, 16, 17)
  0 -0.4258E-04  0  0.2742E-04  0  0.1648E-04  0  0.9735E-05  0  0.6231E-05
   (  4, 16, 17)  (  3, 21,  6)  (  3, 21,  6)  (  3, 21,  6)  (  3, 21,  6)
  0  0.3723E-05  0 -0.2340E-05  0 -0.1761E-05  0 -0.1369E-05  0 -0.1102E-05
   (  3, 21,  6)  (  3, 17, 17)  (  3, 17, 17)  (  3, 17, 17)  (  3, 17, 17)
  0 -0.8716E-06  0 -0.5998E-06  0 -0.3964E-06  0 -0.2625E-06  0 -0.1724E-06
   (  3, 17, 17)  (  3, 17, 17)  (  3, 17, 17)  (  3, 17, 17)  (  3, 17, 17)
  1 -0.3409E-04  0 -0.2660E-04  0 -0.1497E-04  0 -0.1603E-04  0 -0.1460E-04
   (  3, 20,  3)  (  3, 20,  3)  (  4, 21,  1)  (  4, 21,  1)  (  4, 21,  1)
  0 -0.1319E-04  0 -0.8972E-05  0 -0.6507E-05  0  0.4427E-05  0  0.4336E-05
   (  4, 21,  1)  (  4, 21,  1)  (  4, 21,  1)  (  4, 21,  2)  (  4, 21,  2)
  0  0.3655E-05  0  0.2885E-05  0  0.1931E-05  0  0.1198E-05  0  0.6962E-06
   (  4, 21,  2)  (  4, 21,  2)  (  4, 21,  2)  (  4, 21,  2)  (  4, 21,  2)
  0  0.4974E-06  0 -0.2737E-06  0 -0.2256E-06  0 -0.1429E-06  0  0.9806E-07
   (  4, 21,  2)  (  4, 21,  3)  (  4, 21,  3)  (  4, 21,  3)  (  4, 19,  2)
  0  0.6838E-07  0  0.4104E-07  0  0.2631E-07  0  0.2066E-07  0 -0.1100E-07
   (  4, 19,  2)  (  4, 19,  2)  (  4, 20,  3)  (  4, 20,  2)  (  4, 19,  3)
  0  0.6101E-08  1 -0.5615E-06  0 -0.4498E-06  0 -0.2296E-06  0  0.1737E-06
   (  4, 19,  4)  (  3, 17,  2)  (  3, 12,  4)  (  3, 12,  4)  (  4, 17,  2)
  0  0.1592E-06  0  0.1199E-06  0  0.9301E-07  0  0.5055E-07  0 -0.3941E-07
   (  4, 17,  2)  (  4, 17,  2)  (  4, 17,  2)  (  4, 17,  2)  (  4, 16,  2)
  0 -0.2578E-07  0  0.2061E-07  0  0.1389E-07  0 -0.8906E-08  0  0.7076E-08
   (  4, 16,  2)  (  4, 21,  2)  (  4, 21,  2)  (  4, 16,  2)  (  3, 17,  2)
  1  0.6702E-08
   (  3, 17,  2)



 OUTPUT CONTROL FOR STRESS PERIOD   25   TIME STEP    1
    SAVE HEAD FOR ALL LAYERS
    SAVE DRAWDOWN FOR ALL LAYERS
    SAVE BUDGET
    PRINT BUDGET
 UBDSV1 SAVING "         STORAGE" ON UNIT   9 AT TIME STEP  1, STRESS PERIOD  25
 UBDSV2 SAVING "   CONSTANT HEAD" ON UNIT   9 AT TIME STEP  1, STRESS PERIOD  25
 UBDSV1 SAVING "FLOW RIGHT FACE " ON UNIT   9 AT TIME STEP  1, STRESS PERIOD  25
 UBDSV1 SAVING "FLOW FRONT FACE " ON UNIT   9 AT TIME STEP  1, STRESS PERIOD  25
 UBDSV1 SAVING "FLOW LOWER FACE " ON UNIT   9 AT TIME STEP  1, STRESS PERIOD  25
 UBDSV3 SAVING "        RECHARGE" ON UNIT   9 AT TIME STEP  1, STRESS PERIOD  25

 HEAD WILL BE SAVED ON UNIT   37 AT END OF TIME STEP    1, STRESS PERIOD   25

 DRAWDOWN WILL BE SAVED ON UNIT   38 AT END OF TIME STEP    1, STRESS PERIOD   25
1
  VOLUMETRIC BUDGET FOR ENTIRE MODEL AT END OF TIME STEP    1, STRESS PERIOD  25
  ------------------------------------------------------------------------------

     CUMULATIVE VOLUMES      L**3       RATES FOR THIS TIME STEP      L**3/T
     ------------------                 ------------------------

           IN:                                      IN:
           ---                                      ---
             STORAGE =        6446.2637               STORAGE =           0.0000
       CONSTANT HEAD =        7489.4375         CONSTANT HEAD =       7.5382E-03
            RECHARGE =         312.6896              RECHARGE =       9.7813E-05

            TOTAL IN =       14248.3906              TOTAL IN =       7.6360E-03

          OUT:                                     OUT:
          ----                                     ----
             STORAGE =        1408.1744               STORAGE =       7.6361E-03
       CONSTANT HEAD =       12840.5498         CONSTANT HEAD =           0.0000
            RECHARGE =           0.0000              RECHARGE =           0.0000

           TOTAL OUT =       14248.7246             TOTAL OUT =       7.6361E-03

            IN - OUT =          -0.3340              IN - OUT =      -7.8697E-08

 PERCENT DISCREPANCY =          -0.00     PERCENT DISCREPANCY =          -0.00






         TIME SUMMARY AT END OF TIME STEP    1 IN STRESS PERIOD   25
                    SECONDS     MINUTES      HOURS       DAYS        YEARS
                    -----------------------------------------------------------
   TIME STEP LENGTH  86400.      1440.0      24.000      1.0000     2.73785E-03
 STRESS PERIOD TIME  86400.      1440.0      24.000      1.0000     2.73785E-03
         TOTAL TIME 3.19680E+06  53280.      888.00      37.000     0.10130    
1
1
                            STRESS PERIOD NO.   26, LENGTH =   86400.00    
                            -----------------------------------------------

                              NUMBER OF TIME STEPS =     1

                               MULTIPLIER FOR DELT =     1.000

                            INITIAL TIME STEP SIZE =   86400.00    

 REUSING RECH FROM LAST STRESS PERIOD

 CHD NO.   LAYER   ROW   COL    START HEAD        END HEAD         IFACE           
 ----------------------------------------------------------------------------------
      1      4      1      1       109.4           109.6           0.000    
      2      5      1      1       109.4           109.6           0.000    
      3      4      1      2       109.4           109.6           0.000    
      4      5      1      2       109.4           109.6           0.000    
      5      4      1      3       109.4           109.6           0.000    
      6      5      1      3       109.4           109.6           0.000    
      7      4      1      4       109.4           109.6           0.000    
      8      5      1      4       109.4           109.6           0.000    
      9      4      1      5       109.4           109.6           0.000    
     10      5      1      5       109.4           109.6           0.000    
     11      4      1      6       109.4           109.6           0.000    
     12      5      1      6       109.4           109.6           0.000    
     13      4      1      7       109.4           109.6           0.000    
     14      5      1      7       109.4           109.6           0.000    
     15      4      1      8       109.4           109.6           0.000    
     16      5      1      8       109.4           109.6           0.000    
     17      4      1      9       109.4           109.6           0.000    
     18      5      1      9       109.4           109.6           0.000    
     19      4      1     10       109.4           109.6           0.000    
     20      5      1     10       109.4           109.6           0.000    
     21      4      1     11       109.4           109.6           0.000    
     22      5      1     11       109.4           109.6           0.000    
     23      4      1     12       109.4           109.6           0.000    
     24      5      1     12       109.4           109.6           0.000    
     25      4      1     13       109.4           109.6           0.000    
     26      5      1     13       109.4           109.6           0.000    
     27      4      1     14       109.4           109.6           0.000    
     28      5      1     14       109.4           109.6           0.000    
     29      4      1     15       109.4           109.6           0.000    
     30      5      1     15       109.4           109.6           0.000    
     31      4      1     16       109.4           109.6           0.000    
     32      5      1     16       109.4           109.6           0.000    
     33      4      1     17       109.4           109.6           0.000    
     34      5      1     17       109.4           109.6           0.000    
     35      4     17     17       109.4           109.7           0.000    
     36      5     17     17       109.4           109.7           0.000    
     37      4     18     17       109.4           109.7           0.000    
     38      5     18     17       109.4           109.7           0.000    
     39      4     18     16       109.4           109.7           0.000    
     40      5     18     16       109.4           109.7           0.000    
     41      4     19     16       109.4           109.7           0.000    
     42      5     19     16       109.4           109.7           0.000    
     43      4     19     15       109.4           109.7           0.000    
     44      5     19     15       109.4           109.7           0.000    
     45      4     20     15       109.4           109.7           0.000    
     46      5     20     15       109.4           109.7           0.000    
     47      4     20     14       109.4           109.7           0.000    
     48      5     20     14       109.4           109.7           0.000    
     49      4     20     13       109.4           109.7           0.000    
     50      5     20     13       109.4           109.7           0.000    
     51      4     20     12       109.4           109.7           0.000    
     52      5     20     12       109.4           109.7           0.000    
     53      4     20     11       109.4           109.7           0.000    
     54      5     20     11       109.4           109.7           0.000    
     55      4     21     11       109.4           109.7           0.000    
     56      5     21     11       109.4           109.7           0.000    
     57      4     21     10       109.4           109.7           0.000    
     58      5     21     10       109.4           109.7           0.000    
     59      4     21      9       109.4           109.7           0.000    
     60      5     21      9       109.4           109.7           0.000    
     61      4     21      8       109.4           109.7           0.000    
     62      5     21      8       109.4           109.7           0.000    
     63      4     21      7       109.4           109.7           0.000    
     64      5     21      7       109.4           109.7           0.000    
     65      4     21      6       109.4           109.7           0.000    
     66      5     21      6       109.4           109.7           0.000    
     67      4     21      5       109.4           109.7           0.000    
     68      5     21      5       109.4           109.7           0.000    
     69      4     22      5       109.4           109.7           0.000    
     70      5     22      5       109.4           109.7           0.000    
     71      4     22      4       109.4           109.6           0.000    
     72      5     22      4       109.4           109.6           0.000    
     73      4     22      3       109.4           109.6           0.000    
     74      5     22      3       109.4           109.6           0.000    
     75      4     22      2       109.4           109.6           0.000    
     76      5     22      2       109.4           109.6           0.000    
     77      4     22      1       109.4           109.6           0.000    
     78      5     22      1       109.4           109.6           0.000    


     78 TIME-VARIANT SPECIFIED-HEAD CELLS

 SOLVING FOR HEAD 


     5 CALLS TO PCG ROUTINE FOR TIME STEP   1 IN STRESS PERIOD   26
    78 TOTAL ITERATIONS

 MAXIMUM HEAD CHANGE FOR EACH ITERATION (1 INDICATES THE FIRST INNER ITERATION):

    HEAD CHANGE    HEAD CHANGE    HEAD CHANGE    HEAD CHANGE    HEAD CHANGE 
   LAYER,ROW,COL  LAYER,ROW,COL  LAYER,ROW,COL  LAYER,ROW,COL  LAYER,ROW,COL
 ---------------------------------------------------------------------------
  1  0.6492      0 -0.5341      0  0.4548      0 -0.2855      0  0.2163    
   (  5, 21,  2)  (  5, 19,  1)  (  5, 17,  1)  (  5, 16,  1)  (  5, 20,  2)
  0 -0.1590      0 -0.1028      0  0.6866E-01  0 -0.3709E-01  0  0.2623E-01
   (  5, 19,  1)  (  5, 18,  3)  (  5, 16,  3)  (  5, 18,  1)  (  5, 20,  1)
  0 -0.1887E-01  0 -0.1358E-01  0 -0.8568E-02  0 -0.8621E-02  0  0.6760E-02
   (  5, 19,  1)  (  5, 18,  2)  (  5, 20,  1)  (  5, 19,  3)  (  5, 19,  1)
  0 -0.4117E-02  0 -0.2935E-02  0  0.2263E-02  0  0.9425E-03  0  0.9766E-03
   (  5, 18,  1)  (  5, 14,  4)  (  5, 13,  4)  (  5, 13,  1)  (  5, 15,  4)
  0  0.7162E-03  0 -0.4812E-03  0  0.3631E-03  0 -0.2281E-03  0  0.1296E-03
   (  5, 15,  1)  (  5, 14,  1)  (  5, 16,  1)  (  5, 16,  4)  (  5, 20,  1)
  0 -0.1436E-03  0  0.1204E-03  0 -0.5119E-04  0 -0.2700E-04  0  0.2448E-04
   (  5, 19,  1)  (  5, 18,  1)  (  5, 20,  3)  (  5, 12,  2)  (  5,  6,  1)
  1  0.7595E-02  0  0.6284E-02  0  0.7939E-02  0  0.9382E-02  0  0.6842E-02
   (  5, 15,  2)  (  5, 13,  4)  (  5, 17,  1)  (  5, 14,  1)  (  5, 18,  1)
  0  0.6959E-02  0  0.4516E-02  0 -0.2837E-02  0  0.1854E-02  0 -0.2165E-02
   (  5, 17,  3)  (  5, 20,  1)  (  5, 20,  1)  (  5, 20,  1)  (  5, 16,  5)
  0 -0.1897E-02  0  0.1270E-02  0 -0.1118E-02  0 -0.6570E-03  0 -0.4509E-03
   (  5, 16,  1)  (  5, 18,  1)  (  5, 19,  3)  (  5, 17,  1)  (  5, 20,  2)
  0  0.4174E-03  0  0.2892E-03  0 -0.2569E-03  0  0.1642E-03  0 -0.9594E-04
   (  5, 18,  1)  (  5, 10,  1)  (  5, 19,  1)  (  5, 18,  1)  (  5, 16,  1)
  0  0.1482E-03  0  0.6392E-04  0 -0.7237E-04  0  0.3411E-04  0  0.2112E-04
   (  5, 15,  1)  (  5, 19,  1)  (  5, 19,  1)  (  5, 20,  7)  (  5,  9,  5)
  0 -0.1649E-04  0  0.1598E-04  0  0.1403E-04  0 -0.1234E-04  0  0.9970E-05
   (  5, 19,  2)  (  5, 18,  1)  (  5, 18,  2)  (  5, 16,  2)  (  5, 16,  1)
  1  0.6599E-04  0 -0.5709E-04  0  0.3366E-04  0 -0.3423E-04  0  0.2456E-04
   (  5, 15,  3)  (  5, 15,  3)  (  5, 13,  1)  (  5, 18,  2)  (  5, 19,  1)
  0 -0.1917E-04  0  0.9191E-05  0 -0.8912E-05  0  0.3487E-05  0 -0.3706E-05
   (  5, 20,  1)  (  5, 18,  1)  (  5, 14,  4)  (  5, 13,  4)  (  5, 17,  4)
  0 -0.2496E-05  0 -0.2243E-05  0  0.9792E-06  1 -0.1074E-05  0  0.1113E-05
   (  5, 15,  1)  (  5, 19,  3)  (  5, 16,  1)  (  5, 16,  1)  (  5, 19,  3)
  0 -0.1119E-05  0 -0.8349E-06  1 -0.5414E-06
   (  5, 19,  4)  (  5, 15,  1)  (  5, 18,  1)

 MAXIMUM RESIDUAL FOR EACH ITERATION (1 INDICATES THE FIRST INNER ITERATION):

    RESIDUAL       RESIDUAL       RESIDUAL       RESIDUAL       RESIDUAL    
   LAYER,ROW,COL  LAYER,ROW,COL  LAYER,ROW,COL  LAYER,ROW,COL  LAYER,ROW,COL
 ---------------------------------------------------------------------------
  1 -0.1375E-01  0 -0.1151E-01  0 -0.9104E-02  0 -0.6583E-02  0 -0.4065E-02
   (  3, 17, 17)  (  3, 17, 17)  (  3, 17, 17)  (  3, 17, 17)  (  3, 17, 17)
  0 -0.2403E-02  0 -0.1406E-02  0 -0.7849E-03  0 -0.5577E-03  0 -0.4364E-03
   (  3, 17, 17)  (  3, 20, 11)  (  3, 20, 11)  (  4, 16, 17)  (  4, 16, 17)
  0 -0.3256E-03  0 -0.2362E-03  0 -0.1698E-03  0 -0.1192E-03  0 -0.1020E-03
   (  4, 16, 17)  (  4, 16, 17)  (  4, 16, 17)  (  4, 16, 17)  (  4, 16, 17)
  0 -0.7097E-04  0  0.4838E-04  0  0.3505E-04  0  0.2337E-04  0  0.1410E-04
   (  4, 16, 17)  (  3, 21,  6)  (  3, 21,  6)  (  3, 21,  6)  (  3, 21,  6)
  0  0.9050E-05  0  0.5952E-05  0  0.3227E-05  0 -0.1818E-05  0 -0.1294E-05
   (  3, 21,  6)  (  3, 21,  6)  (  3, 21,  6)  (  5, 15, 17)  (  5, 15, 17)
  0 -0.1057E-05  0 -0.8020E-06  0 -0.5737E-06  0 -0.4025E-06  0 -0.2896E-06
   (  5, 15, 17)  (  5, 15, 17)  (  3, 17, 17)  (  3, 17, 17)  (  3, 17, 17)
  1 -0.3337E-04  0 -0.3249E-04  0 -0.2919E-04  0 -0.3177E-04  0 -0.2127E-04
   (  3, 16,  2)  (  3, 16,  1)  (  3, 16,  1)  (  4, 17,  1)  (  3, 16,  1)
  0 -0.2489E-04  0 -0.1874E-04  0  0.1554E-04  0 -0.1379E-04  0 -0.1032E-04
   (  4, 18,  1)  (  4, 21,  1)  (  4, 16,  2)  (  4, 21,  1)  (  4, 21,  1)
  0  0.8874E-05  0 -0.7028E-05  0  0.6847E-05  0  0.5652E-05  0  0.5499E-05
   (  4, 19,  2)  (  4, 21,  1)  (  4, 21,  2)  (  4, 21,  2)  (  4, 21,  2)
  0  0.4772E-05  0  0.3484E-05  0  0.2318E-05  0  0.1308E-05  0  0.1196E-05
   (  4, 21,  2)  (  4, 21,  2)  (  4, 21,  2)  (  4, 21,  2)  (  4, 21,  2)
  0 -0.8486E-06  0 -0.7867E-06  0 -0.5987E-06  0 -0.4427E-06  0 -0.2648E-06
   (  4, 20,  2)  (  4, 20,  2)  (  4, 20,  2)  (  4, 20,  2)  (  4, 21,  2)
  0 -0.2305E-06  0 -0.1823E-06  0 -0.1517E-06  0  0.1228E-06  0  0.7936E-07
   (  4, 21,  2)  (  4, 21,  2)  (  4, 21,  2)  (  4, 20,  3)  (  4, 20,  3)
  1  0.2707E-06  0  0.2129E-06  0  0.1462E-06  0  0.7225E-07  0 -0.6636E-07
   (  2, 13,  5)  (  5,  8,  1)  (  5,  8,  1)  (  4, 17,  3)  (  4, 20,  3)
  0 -0.4828E-07  0 -0.4467E-07  0 -0.3302E-07  0 -0.2564E-07  0  0.1602E-07
   (  4, 20,  3)  (  4, 20,  3)  (  4, 20,  3)  (  4, 20,  3)  (  2, 13,  5)
  0  0.1355E-07  0  0.1095E-07  0  0.1025E-07  1  0.8199E-08  0  0.7526E-08
   (  2, 13,  5)  (  2, 13,  5)  (  2, 13,  5)  (  2, 13,  5)  (  2, 13,  5)
  0  0.6343E-08  0  0.4809E-08  1  0.4681E-08
   (  2, 13,  5)  (  2, 13,  5)  (  2, 13,  5)



 OUTPUT CONTROL FOR STRESS PERIOD   26   TIME STEP    1
    SAVE HEAD FOR ALL LAYERS
    SAVE DRAWDOWN FOR ALL LAYERS
    SAVE BUDGET
    PRINT BUDGET
 UBDSV1 SAVING "         STORAGE" ON UNIT   9 AT TIME STEP  1, STRESS PERIOD  26
 UBDSV2 SAVING "   CONSTANT HEAD" ON UNIT   9 AT TIME STEP  1, STRESS PERIOD  26
 UBDSV1 SAVING "FLOW RIGHT FACE " ON UNIT   9 AT TIME STEP  1, STRESS PERIOD  26
 UBDSV1 SAVING "FLOW FRONT FACE " ON UNIT   9 AT TIME STEP  1, STRESS PERIOD  26
 UBDSV1 SAVING "FLOW LOWER FACE " ON UNIT   9 AT TIME STEP  1, STRESS PERIOD  26
 UBDSV3 SAVING "        RECHARGE" ON UNIT   9 AT TIME STEP  1, STRESS PERIOD  26

 HEAD WILL BE SAVED ON UNIT   37 AT END OF TIME STEP    1, STRESS PERIOD   26

 DRAWDOWN WILL BE SAVED ON UNIT   38 AT END OF TIME STEP    1, STRESS PERIOD   26
1
  VOLUMETRIC BUDGET FOR ENTIRE MODEL AT END OF TIME STEP    1, STRESS PERIOD  26
  ------------------------------------------------------------------------------

     CUMULATIVE VOLUMES      L**3       RATES FOR THIS TIME STEP      L**3/T
     ------------------                 ------------------------

           IN:                                      IN:
           ---                                      ---
             STORAGE =        6446.2637               STORAGE =           0.0000
       CONSTANT HEAD =        8170.8267         CONSTANT HEAD =       7.8865E-03
            RECHARGE =         321.1407              RECHARGE =       9.7813E-05

            TOTAL IN =       14938.2305              TOTAL IN =       7.9843E-03

          OUT:                                     OUT:
          ----                                     ----
             STORAGE =        2098.0244               STORAGE =       7.9844E-03
       CONSTANT HEAD =       12840.5498         CONSTANT HEAD =           0.0000
            RECHARGE =           0.0000              RECHARGE =           0.0000

           TOTAL OUT =       14938.5742             TOTAL OUT =       7.9844E-03

            IN - OUT =          -0.3438              IN - OUT =      -1.1176E-07

 PERCENT DISCREPANCY =          -0.00     PERCENT DISCREPANCY =          -0.00






         TIME SUMMARY AT END OF TIME STEP    1 IN STRESS PERIOD   26
                    SECONDS     MINUTES      HOURS       DAYS        YEARS
                    -----------------------------------------------------------
   TIME STEP LENGTH  86400.      1440.0      24.000      1.0000     2.73785E-03
 STRESS PERIOD TIME  86400.      1440.0      24.000      1.0000     2.73785E-03
         TOTAL TIME 3.28320E+06  54720.      912.00      38.000     0.10404    
1
1
                            STRESS PERIOD NO.   27, LENGTH =   86400.00    
                            -----------------------------------------------

                              NUMBER OF TIME STEPS =     1

                               MULTIPLIER FOR DELT =     1.000

                            INITIAL TIME STEP SIZE =   86400.00    

 REUSING RECH FROM LAST STRESS PERIOD

 CHD NO.   LAYER   ROW   COL    START HEAD        END HEAD         IFACE           
 ----------------------------------------------------------------------------------
      1      4      1      1       109.6           109.7           0.000    
      2      5      1      1       109.6           109.7           0.000    
      3      4      1      2       109.6           109.7           0.000    
      4      5      1      2       109.6           109.7           0.000    
      5      4      1      3       109.6           109.7           0.000    
      6      5      1      3       109.6           109.7           0.000    
      7      4      1      4       109.6           109.7           0.000    
      8      5      1      4       109.6           109.7           0.000    
      9      4      1      5       109.6           109.7           0.000    
     10      5      1      5       109.6           109.7           0.000    
     11      4      1      6       109.6           109.7           0.000    
     12      5      1      6       109.6           109.7           0.000    
     13      4      1      7       109.6           109.7           0.000    
     14      5      1      7       109.6           109.7           0.000    
     15      4      1      8       109.6           109.7           0.000    
     16      5      1      8       109.6           109.7           0.000    
     17      4      1      9       109.6           109.7           0.000    
     18      5      1      9       109.6           109.7           0.000    
     19      4      1     10       109.6           109.7           0.000    
     20      5      1     10       109.6           109.7           0.000    
     21      4      1     11       109.6           109.7           0.000    
     22      5      1     11       109.6           109.7           0.000    
     23      4      1     12       109.6           109.7           0.000    
     24      5      1     12       109.6           109.7           0.000    
     25      4      1     13       109.6           109.7           0.000    
     26      5      1     13       109.6           109.7           0.000    
     27      4      1     14       109.6           109.7           0.000    
     28      5      1     14       109.6           109.7           0.000    
     29      4      1     15       109.6           109.7           0.000    
     30      5      1     15       109.6           109.7           0.000    
     31      4      1     16       109.6           109.7           0.000    
     32      5      1     16       109.6           109.7           0.000    
     33      4      1     17       109.6           109.7           0.000    
     34      5      1     17       109.6           109.7           0.000    
     35      4     17     17       109.7           109.8           0.000    
     36      5     17     17       109.7           109.8           0.000    
     37      4     18     17       109.7           109.8           0.000    
     38      5     18     17       109.7           109.8           0.000    
     39      4     18     16       109.7           109.8           0.000    
     40      5     18     16       109.7           109.8           0.000    
     41      4     19     16       109.7           109.8           0.000    
     42      5     19     16       109.7           109.8           0.000    
     43      4     19     15       109.7           109.8           0.000    
     44      5     19     15       109.7           109.8           0.000    
     45      4     20     15       109.7           109.8           0.000    
     46      5     20     15       109.7           109.8           0.000    
     47      4     20     14       109.7           109.8           0.000    
     48      5     20     14       109.7           109.8           0.000    
     49      4     20     13       109.7           109.8           0.000    
     50      5     20     13       109.7           109.8           0.000    
     51      4     20     12       109.7           109.8           0.000    
     52      5     20     12       109.7           109.8           0.000    
     53      4     20     11       109.7           109.8           0.000    
     54      5     20     11       109.7           109.8           0.000    
     55      4     21     11       109.7           109.8           0.000    
     56      5     21     11       109.7           109.8           0.000    
     57      4     21     10       109.7           109.8           0.000    
     58      5     21     10       109.7           109.8           0.000    
     59      4     21      9       109.7           109.8           0.000    
     60      5     21      9       109.7           109.8           0.000    
     61      4     21      8       109.7           109.8           0.000    
     62      5     21      8       109.7           109.8           0.000    
     63      4     21      7       109.7           109.8           0.000    
     64      5     21      7       109.7           109.8           0.000    
     65      4     21      6       109.7           109.8           0.000    
     66      5     21      6       109.7           109.8           0.000    
     67      4     21      5       109.7           109.8           0.000    
     68      5     21      5       109.7           109.8           0.000    
     69      4     22      5       109.7           109.8           0.000    
     70      5     22      5       109.7           109.8           0.000    
     71      4     22      4       109.6           109.8           0.000    
     72      5     22      4       109.6           109.8           0.000    
     73      4     22      3       109.6           109.8           0.000    
     74      5     22      3       109.6           109.8           0.000    
     75      4     22      2       109.6           109.8           0.000    
     76      5     22      2       109.6           109.8           0.000    
     77      4     22      1       109.6           109.8           0.000    
     78      5     22      1       109.6           109.8           0.000    


     78 TIME-VARIANT SPECIFIED-HEAD CELLS

 SOLVING FOR HEAD 


     4 CALLS TO PCG ROUTINE FOR TIME STEP   1 IN STRESS PERIOD   27
    64 TOTAL ITERATIONS

 MAXIMUM HEAD CHANGE FOR EACH ITERATION (1 INDICATES THE FIRST INNER ITERATION):

    HEAD CHANGE    HEAD CHANGE    HEAD CHANGE    HEAD CHANGE    HEAD CHANGE 
   LAYER,ROW,COL  LAYER,ROW,COL  LAYER,ROW,COL  LAYER,ROW,COL  LAYER,ROW,COL
 ---------------------------------------------------------------------------
  1  0.2944      0 -0.1872      0 -0.1671      0  0.1365      0  0.1562    
   (  5, 21,  2)  (  5, 17,  1)  (  5, 20,  1)  (  5, 18,  1)  (  5, 19,  1)
  0  0.1081      0 -0.8779E-01  0  0.6235E-01  0  0.5734E-01  0  0.3243E-01
   (  5, 20,  1)  (  5, 18,  1)  (  5, 17,  1)  (  5, 18,  1)  (  5, 19,  1)
  0  0.2438E-01  0  0.1580E-01  0 -0.2013E-01  0  0.1084E-01  0  0.6467E-02
   (  5, 14,  5)  (  5, 17,  2)  (  5, 16,  3)  (  5, 12,  5)  (  5, 19,  3)
  0 -0.5136E-02  0 -0.3693E-02  0 -0.3193E-02  0 -0.4693E-02  0 -0.1799E-02
   (  5, 18,  3)  (  5, 18,  2)  (  5, 16,  3)  (  5, 19,  3)  (  5, 17,  2)
  0  0.1617E-02  0 -0.1194E-02  0  0.9830E-03  0 -0.7786E-03  0  0.5284E-03
   (  5, 16,  1)  (  5, 15,  1)  (  5, 19,  2)  (  5, 20,  1)  (  5, 18,  5)
  0  0.3336E-03  0  0.3252E-03  0  0.1893E-03  0  0.1832E-03  0 -0.1117E-03
   (  5, 20,  3)  (  5, 14,  2)  (  5, 19,  1)  (  5,  6,  1)  (  5, 17,  2)
  1  0.1078E-02  0 -0.9846E-03  0  0.8996E-03  0 -0.6142E-03  0  0.2792E-03
   (  5, 17,  2)  (  5, 15,  2)  (  5, 20,  1)  (  5,  6,  1)  (  5, 14,  4)
  0 -0.2607E-03  0 -0.1884E-03  0 -0.1037E-03  0  0.8118E-04  0 -0.5927E-04
   (  5, 13,  3)  (  5, 18,  1)  (  5, 15,  4)  (  5, 15,  4)  (  5, 17,  4)
  0 -0.6080E-04  0  0.3411E-04  0 -0.3644E-04  0 -0.2705E-04  0 -0.1936E-04
   (  5, 16,  1)  (  5, 15,  2)  (  5, 16,  3)  (  5, 14,  1)  (  5, 17,  3)
  0 -0.1413E-04  0 -0.1049E-04  0  0.1007E-04  0 -0.5653E-05  0  0.6541E-05
   (  5, 19,  3)  (  5, 18,  1)  (  5, 19,  3)  (  5, 20,  1)  (  5, 16,  1)
  0 -0.3064E-05  0  0.3977E-05  0 -0.2449E-05  0  0.2178E-05  0 -0.1198E-05
   (  5, 17,  2)  (  5, 18,  3)  (  5, 19,  4)  (  5, 19,  1)  (  5, 20,  2)
  0  0.9552E-06  1  0.3466E-05  0  0.3047E-05  0 -0.2515E-05  0 -0.1667E-05
   (  5, 15,  3)  (  5, 18,  5)  (  5, 15,  3)  (  5, 14,  1)  (  5, 20,  2)
  0  0.1336E-05  0  0.1056E-05  0  0.7394E-06  1 -0.5204E-06
   (  5, 12,  1)  (  5, 19,  1)  (  5, 15,  4)  (  5, 16,  4)

 MAXIMUM RESIDUAL FOR EACH ITERATION (1 INDICATES THE FIRST INNER ITERATION):

    RESIDUAL       RESIDUAL       RESIDUAL       RESIDUAL       RESIDUAL    
   LAYER,ROW,COL  LAYER,ROW,COL  LAYER,ROW,COL  LAYER,ROW,COL  LAYER,ROW,COL
 ---------------------------------------------------------------------------
  1 -0.6399E-02  0 -0.5693E-02  0 -0.5029E-02  0 -0.4255E-02  0 -0.3391E-02
   (  3, 17, 17)  (  3, 17, 17)  (  3, 17, 17)  (  3, 17, 17)  (  3, 17, 17)
  0 -0.2509E-02  0 -0.1631E-02  0 -0.9268E-03  0 -0.5055E-03  0  0.3138E-03
   (  3, 17, 17)  (  3, 17, 17)  (  3, 17, 17)  (  3, 20, 11)  (  4, 21,  2)
  0  0.2820E-03  0  0.2503E-03  0  0.2041E-03  0 -0.1546E-03  0 -0.1218E-03
   (  4, 21,  2)  (  4, 21,  2)  (  4, 21,  2)  (  4, 16, 17)  (  4, 16, 17)
  0 -0.9094E-04  0 -0.8171E-04  0 -0.5996E-04  0 -0.4210E-04  0  0.3153E-04
   (  4, 16, 17)  (  4, 16, 17)  (  4, 16, 17)  (  4, 16, 17)  (  3, 21,  6)
  0  0.2558E-04  0  0.2314E-04  0  0.2033E-04  0  0.1512E-04  0  0.9732E-05
   (  3, 21,  6)  (  3, 21,  6)  (  3, 21,  6)  (  3, 21,  6)  (  3, 21,  6)
  0  0.5935E-05  0  0.3468E-05  0  0.2820E-05  0  0.1334E-05  0 -0.1026E-05
   (  3, 21,  6)  (  3, 21,  6)  (  3, 21,  6)  (  3, 21,  5)  (  5, 15, 17)
  1 -0.2948E-05  0  0.2675E-05  0  0.1976E-05  0  0.1548E-05  0  0.1285E-05
   (  3, 14,  5)  (  5,  7,  1)  (  5,  7,  1)  (  5, 16, 17)  (  5, 16, 17)
  0  0.1025E-05  0  0.8776E-06  0 -0.6578E-06  0 -0.5090E-06  0 -0.3547E-06
   (  5, 16, 17)  (  5, 16, 17)  (  3, 17, 17)  (  3, 17, 17)  (  3, 17, 17)
  0 -0.2746E-06  0 -0.2305E-06  0 -0.1443E-06  0  0.9007E-07  0 -0.9962E-07
   (  3, 17, 17)  (  3, 17, 17)  (  3, 17, 17)  (  2, 13,  5)  (  4, 18, 14)
  0 -0.8515E-07  0 -0.6047E-07  0 -0.4505E-07  0 -0.3546E-07  0 -0.2684E-07
   (  4, 18, 14)  (  4, 18, 14)  (  4, 18, 14)  (  4, 18, 14)  (  4, 20,  4)
  0 -0.2398E-07  0 -0.1860E-07  0 -0.1251E-07  0 -0.1128E-07  0 -0.9546E-08
   (  4, 20,  4)  (  4, 20,  4)  (  4, 21,  4)  (  4, 21,  4)  (  4, 21,  4)
  0 -0.5868E-08  1  0.9639E-08  0  0.6818E-08  0  0.6101E-08  0  0.4638E-08
   (  4, 21,  4)  (  4, 16,  4)  (  4,  6,  4)  (  4,  6,  4)  (  5,  5, 17)
  0  0.3425E-08  0  0.2911E-08  0 -0.2232E-08  1 -0.2084E-08
   (  5,  5, 17)  (  4, 18,  1)  (  4,  3, 17)  (  4,  3, 17)



 OUTPUT CONTROL FOR STRESS PERIOD   27   TIME STEP    1
    SAVE HEAD FOR ALL LAYERS
    SAVE DRAWDOWN FOR ALL LAYERS
    SAVE BUDGET
    PRINT BUDGET
 UBDSV1 SAVING "         STORAGE" ON UNIT   9 AT TIME STEP  1, STRESS PERIOD  27
 UBDSV2 SAVING "   CONSTANT HEAD" ON UNIT   9 AT TIME STEP  1, STRESS PERIOD  27
 UBDSV1 SAVING "FLOW RIGHT FACE " ON UNIT   9 AT TIME STEP  1, STRESS PERIOD  27
 UBDSV1 SAVING "FLOW FRONT FACE " ON UNIT   9 AT TIME STEP  1, STRESS PERIOD  27
 UBDSV1 SAVING "FLOW LOWER FACE " ON UNIT   9 AT TIME STEP  1, STRESS PERIOD  27
 UBDSV3 SAVING "        RECHARGE" ON UNIT   9 AT TIME STEP  1, STRESS PERIOD  27

 HEAD WILL BE SAVED ON UNIT   37 AT END OF TIME STEP    1, STRESS PERIOD   27

 DRAWDOWN WILL BE SAVED ON UNIT   38 AT END OF TIME STEP    1, STRESS PERIOD   27
1
  VOLUMETRIC BUDGET FOR ENTIRE MODEL AT END OF TIME STEP    1, STRESS PERIOD  27
  ------------------------------------------------------------------------------

     CUMULATIVE VOLUMES      L**3       RATES FOR THIS TIME STEP      L**3/T
     ------------------                 ------------------------

           IN:                                      IN:
           ---                                      ---
             STORAGE =        6446.2637               STORAGE =           0.0000
       CONSTANT HEAD =        8659.3096         CONSTANT HEAD =       5.6537E-03
            RECHARGE =         329.5918              RECHARGE =       9.7813E-05

            TOTAL IN =       15435.1650              TOTAL IN =       5.7516E-03

          OUT:                                     OUT:
          ----                                     ----
             STORAGE =        2594.9658               STORAGE =       5.7516E-03
       CONSTANT HEAD =       12840.5498         CONSTANT HEAD =           0.0000
            RECHARGE =           0.0000              RECHARGE =           0.0000

           TOTAL OUT =       15435.5156             TOTAL OUT =       5.7516E-03

            IN - OUT =          -0.3506              IN - OUT =      -8.3819E-08

 PERCENT DISCREPANCY =          -0.00     PERCENT DISCREPANCY =          -0.00






         TIME SUMMARY AT END OF TIME STEP    1 IN STRESS PERIOD   27
                    SECONDS     MINUTES      HOURS       DAYS        YEARS
                    -----------------------------------------------------------
   TIME STEP LENGTH  86400.      1440.0      24.000      1.0000     2.73785E-03
 STRESS PERIOD TIME  86400.      1440.0      24.000      1.0000     2.73785E-03
         TOTAL TIME 3.36960E+06  56160.      936.00      39.000     0.10678    
1
1
                            STRESS PERIOD NO.   28, LENGTH =   259200.0    
                            -----------------------------------------------

                              NUMBER OF TIME STEPS =     3

                               MULTIPLIER FOR DELT =     1.000

                            INITIAL TIME STEP SIZE =   86400.00    

 REUSING RECH FROM LAST STRESS PERIOD

 CHD NO.   LAYER   ROW   COL    START HEAD        END HEAD         IFACE           
 ----------------------------------------------------------------------------------
      1      4      1      1       109.7           109.7           0.000    
      2      5      1      1       109.7           109.7           0.000    
      3      4      1      2       109.7           109.7           0.000    
      4      5      1      2       109.7           109.7           0.000    
      5      4      1      3       109.7           109.7           0.000    
      6      5      1      3       109.7           109.7           0.000    
      7      4      1      4       109.7           109.7           0.000    
      8      5      1      4       109.7           109.7           0.000    
      9      4      1      5       109.7           109.7           0.000    
     10      5      1      5       109.7           109.7           0.000    
     11      4      1      6       109.7           109.7           0.000    
     12      5      1      6       109.7           109.7           0.000    
     13      4      1      7       109.7           109.7           0.000    
     14      5      1      7       109.7           109.7           0.000    
     15      4      1      8       109.7           109.7           0.000    
     16      5      1      8       109.7           109.7           0.000    
     17      4      1      9       109.7           109.7           0.000    
     18      5      1      9       109.7           109.7           0.000    
     19      4      1     10       109.7           109.7           0.000    
     20      5      1     10       109.7           109.7           0.000    
     21      4      1     11       109.7           109.7           0.000    
     22      5      1     11       109.7           109.7           0.000    
     23      4      1     12       109.7           109.7           0.000    
     24      5      1     12       109.7           109.7           0.000    
     25      4      1     13       109.7           109.7           0.000    
     26      5      1     13       109.7           109.7           0.000    
     27      4      1     14       109.7           109.7           0.000    
     28      5      1     14       109.7           109.7           0.000    
     29      4      1     15       109.7           109.7           0.000    
     30      5      1     15       109.7           109.7           0.000    
     31      4      1     16       109.7           109.7           0.000    
     32      5      1     16       109.7           109.7           0.000    
     33      4      1     17       109.7           109.7           0.000    
     34      5      1     17       109.7           109.7           0.000    
     35      4     17     17       109.8           109.4           0.000    
     36      5     17     17       109.8           109.4           0.000    
     37      4     18     17       109.8           109.4           0.000    
     38      5     18     17       109.8           109.4           0.000    
     39      4     18     16       109.8           109.4           0.000    
     40      5     18     16       109.8           109.4           0.000    
     41      4     19     16       109.8           109.4           0.000    
     42      5     19     16       109.8           109.4           0.000    
     43      4     19     15       109.8           109.4           0.000    
     44      5     19     15       109.8           109.4           0.000    
     45      4     20     15       109.8           109.4           0.000    
     46      5     20     15       109.8           109.4           0.000    
     47      4     20     14       109.8           109.4           0.000    
     48      5     20     14       109.8           109.4           0.000    
     49      4     20     13       109.8           109.4           0.000    
     50      5     20     13       109.8           109.4           0.000    
     51      4     20     12       109.8           109.4           0.000    
     52      5     20     12       109.8           109.4           0.000    
     53      4     20     11       109.8           109.4           0.000    
     54      5     20     11       109.8           109.4           0.000    
     55      4     21     11       109.8           109.4           0.000    
     56      5     21     11       109.8           109.4           0.000    
     57      4     21     10       109.8           109.4           0.000    
     58      5     21     10       109.8           109.4           0.000    
     59      4     21      9       109.8           109.4           0.000    
     60      5     21      9       109.8           109.4           0.000    
     61      4     21      8       109.8           109.4           0.000    
     62      5     21      8       109.8           109.4           0.000    
     63      4     21      7       109.8           109.4           0.000    
     64      5     21      7       109.8           109.4           0.000    
     65      4     21      6       109.8           109.4           0.000    
     66      5     21      6       109.8           109.4           0.000    
     67      4     21      5       109.8           109.4           0.000    
     68      5     21      5       109.8           109.4           0.000    
     69      4     22      5       109.8           109.4           0.000    
     70      5     22      5       109.8           109.4           0.000    
     71      4     22      4       109.8           109.4           0.000    
     72      5     22      4       109.8           109.4           0.000    
     73      4     22      3       109.8           109.4           0.000    
     74      5     22      3       109.8           109.4           0.000    
     75      4     22      2       109.8           109.4           0.000    
     76      5     22      2       109.8           109.4           0.000    
     77      4     22      1       109.8           109.4           0.000    
     78      5     22      1       109.8           109.4           0.000    


     78 TIME-VARIANT SPECIFIED-HEAD CELLS

 SOLVING FOR HEAD 


     3 CALLS TO PCG ROUTINE FOR TIME STEP   1 IN STRESS PERIOD   28
    53 TOTAL ITERATIONS

 MAXIMUM HEAD CHANGE FOR EACH ITERATION (1 INDICATES THE FIRST INNER ITERATION):

    HEAD CHANGE    HEAD CHANGE    HEAD CHANGE    HEAD CHANGE    HEAD CHANGE 
   LAYER,ROW,COL  LAYER,ROW,COL  LAYER,ROW,COL  LAYER,ROW,COL  LAYER,ROW,COL
 ---------------------------------------------------------------------------
  1 -0.2594      0  0.1759      0 -0.1465      0  0.1139      0 -0.1666    
   (  5, 21,  2)  (  5, 18,  1)  (  5, 16,  2)  (  5, 15,  3)  (  5, 19,  1)
  0 -0.9303E-01  0  0.8538E-01  0  0.6395E-01  0 -0.5376E-01  0  0.3200E-01
   (  5, 20,  1)  (  5, 18,  1)  (  5, 19,  1)  (  5, 18,  1)  (  5, 18,  4)
  0 -0.2208E-01  0 -0.1648E-01  0  0.2134E-01  0 -0.1231E-01  0 -0.8183E-02
   (  5, 17,  3)  (  5, 17,  2)  (  5, 16,  3)  (  5, 12,  5)  (  5, 19,  3)
  0  0.7070E-02  0 -0.5240E-02  0  0.4139E-02  0  0.4645E-02  0  0.1984E-02
   (  5, 18,  2)  (  5, 18,  1)  (  5, 16,  1)  (  5, 19,  3)  (  5, 17,  2)
  0 -0.1362E-02  0  0.1533E-02  0  0.1097E-02  0 -0.8524E-03  0  0.5245E-03
   (  5, 16,  1)  (  5, 17,  2)  (  5, 19,  1)  (  5, 19,  2)  (  5, 20,  3)
  0 -0.4410E-03  0  0.3166E-03  0  0.2789E-03  0 -0.1569E-03  0 -0.9552E-04
   (  5, 20,  3)  (  5, 19,  2)  (  5, 15,  4)  (  5,  6,  1)  (  5, 16,  1)
  1  0.1170E-03  0  0.1887E-03  0 -0.2131E-03  0 -0.1395E-03  0  0.1365E-03
   (  5, 16,  1)  (  5,  6,  1)  (  5,  6,  1)  (  5, 18,  1)  (  5, 18,  3)
  0 -0.1159E-03  0 -0.6468E-04  0 -0.4931E-04  0 -0.3596E-04  0  0.1971E-04
   (  5, 17,  3)  (  5, 13,  4)  (  5, 15,  1)  (  5, 12,  5)  (  5, 12,  4)
  0  0.1732E-04  0 -0.2049E-04  0 -0.1166E-04  0  0.8718E-05  0  0.7732E-05
   (  5, 15,  1)  (  5, 16,  2)  (  5, 20,  1)  (  5, 15,  4)  (  5, 19,  5)
  0 -0.4457E-05  0  0.2578E-05  0  0.2808E-05  0 -0.2907E-05  0 -0.2557E-05
   (  5, 20,  1)  (  5, 19,  2)  (  5, 15,  3)  (  5, 16,  3)  (  5, 17,  1)
  0  0.1981E-05  0 -0.9564E-06  1  0.6617E-06
   (  5, 16,  2)  (  5, 15,  1)  (  5, 16,  4)

 MAXIMUM RESIDUAL FOR EACH ITERATION (1 INDICATES THE FIRST INNER ITERATION):

    RESIDUAL       RESIDUAL       RESIDUAL       RESIDUAL       RESIDUAL    
   LAYER,ROW,COL  LAYER,ROW,COL  LAYER,ROW,COL  LAYER,ROW,COL  LAYER,ROW,COL
 ---------------------------------------------------------------------------
  1  0.8050E-02  0  0.7276E-02  0  0.6582E-02  0  0.5612E-02  0  0.4460E-02
   (  3, 17, 17)  (  3, 17, 17)  (  3, 17, 17)  (  3, 17, 17)  (  3, 17, 17)
  0  0.3324E-02  0  0.2203E-02  0  0.1347E-02  0  0.8281E-03  0  0.5370E-03
   (  3, 17, 17)  (  3, 17, 17)  (  3, 20, 11)  (  3, 20, 11)  (  3, 20, 11)
  0  0.3609E-03  0  0.3209E-03  0  0.2783E-03  0  0.2243E-03  0  0.1756E-03
   (  3, 20, 11)  (  4, 16, 17)  (  4, 16, 17)  (  4, 16, 17)  (  4, 16, 17)
  0  0.1501E-03  0  0.1207E-03  0  0.8844E-04  0  0.6289E-04  0  0.4326E-04
   (  4, 16, 17)  (  4, 16, 17)  (  4, 16, 17)  (  4, 16, 17)  (  4, 16, 17)
  0  0.3982E-04  0  0.2899E-04  0  0.2200E-04  0  0.1757E-04  0  0.1087E-04
   (  4, 16, 17)  (  4, 16, 17)  (  4, 16, 17)  (  4, 16, 17)  (  4, 16, 17)
  0  0.6528E-05  0  0.4881E-05  0  0.3181E-05  0  0.1613E-05  0  0.1433E-05
   (  4, 16, 17)  (  4, 16, 17)  (  4, 16, 17)  (  4, 16, 17)  (  4, 16, 17)
  1 -0.2317E-05  0 -0.1892E-05  0 -0.1056E-05  0 -0.8805E-06  0 -0.6758E-06
   (  3, 21,  5)  (  3, 21,  5)  (  3, 21,  6)  (  3, 21,  6)  (  4, 18, 14)
  0 -0.6751E-06  0 -0.5903E-06  0 -0.4653E-06  0  0.2939E-06  0  0.2403E-06
   (  4, 18, 14)  (  4, 18, 14)  (  4, 18, 14)  (  4, 20,  2)  (  4, 20,  2)
  0  0.2009E-06  0  0.1452E-06  0  0.1228E-06  0  0.9668E-07  0  0.4897E-07
   (  4, 20,  2)  (  4, 20,  2)  (  4, 20,  2)  (  4, 20,  2)  (  4, 20,  2)
  0  0.3647E-07  0  0.3396E-07  0  0.2641E-07  0  0.1782E-07  0 -0.1406E-07
   (  4, 16, 17)  (  4, 16, 17)  (  4, 16, 17)  (  4, 16, 17)  (  4, 20,  2)
  0 -0.1534E-07  0 -0.1297E-07  1 -0.1210E-07
   (  4, 20,  2)  (  4, 20,  2)  (  3, 21,  4)



 OUTPUT CONTROL FOR STRESS PERIOD   28   TIME STEP    1
    SAVE HEAD FOR ALL LAYERS
    SAVE DRAWDOWN FOR ALL LAYERS
    SAVE BUDGET
    PRINT BUDGET
 UBDSV1 SAVING "         STORAGE" ON UNIT   9 AT TIME STEP  1, STRESS PERIOD  28
 UBDSV2 SAVING "   CONSTANT HEAD" ON UNIT   9 AT TIME STEP  1, STRESS PERIOD  28
 UBDSV1 SAVING "FLOW RIGHT FACE " ON UNIT   9 AT TIME STEP  1, STRESS PERIOD  28
 UBDSV1 SAVING "FLOW FRONT FACE " ON UNIT   9 AT TIME STEP  1, STRESS PERIOD  28
 UBDSV1 SAVING "FLOW LOWER FACE " ON UNIT   9 AT TIME STEP  1, STRESS PERIOD  28
 UBDSV3 SAVING "        RECHARGE" ON UNIT   9 AT TIME STEP  1, STRESS PERIOD  28

 HEAD WILL BE SAVED ON UNIT   37 AT END OF TIME STEP    1, STRESS PERIOD   28

 DRAWDOWN WILL BE SAVED ON UNIT   38 AT END OF TIME STEP    1, STRESS PERIOD   28
1
  VOLUMETRIC BUDGET FOR ENTIRE MODEL AT END OF TIME STEP    1, STRESS PERIOD  28
  ------------------------------------------------------------------------------

     CUMULATIVE VOLUMES      L**3       RATES FOR THIS TIME STEP      L**3/T
     ------------------                 ------------------------

           IN:                                      IN:
           ---                                      ---
             STORAGE =        6520.7500               STORAGE =       8.6211E-04
       CONSTANT HEAD =        8719.4883         CONSTANT HEAD =       6.9651E-04
            RECHARGE =         338.0428              RECHARGE =       9.7813E-05

            TOTAL IN =       15578.2812              TOTAL IN =       1.6564E-03

          OUT:                                     OUT:
          ----                                     ----
             STORAGE =        2624.5713               STORAGE =       3.4265E-04
       CONSTANT HEAD =       12954.0684         CONSTANT HEAD =       1.3139E-03
            RECHARGE =           0.0000              RECHARGE =           0.0000

           TOTAL OUT =       15578.6396             TOTAL OUT =       1.6565E-03

            IN - OUT =          -0.3584              IN - OUT =      -9.4646E-08

 PERCENT DISCREPANCY =          -0.00     PERCENT DISCREPANCY =          -0.01






         TIME SUMMARY AT END OF TIME STEP    1 IN STRESS PERIOD   28
                    SECONDS     MINUTES      HOURS       DAYS        YEARS
                    -----------------------------------------------------------
   TIME STEP LENGTH  86400.      1440.0      24.000      1.0000     2.73785E-03
 STRESS PERIOD TIME  86400.      1440.0      24.000      1.0000     2.73785E-03
         TOTAL TIME 3.45600E+06  57600.      960.00      40.000     0.10951    
1

 SOLVING FOR HEAD 
     4 CALLS TO PCG ROUTINE FOR TIME STEP   2 IN STRESS PERIOD   28
    61 TOTAL ITERATIONS

 MAXIMUM HEAD CHANGE FOR EACH ITERATION (1 INDICATES THE FIRST INNER ITERATION):

    HEAD CHANGE    HEAD CHANGE    HEAD CHANGE    HEAD CHANGE    HEAD CHANGE 
   LAYER,ROW,COL  LAYER,ROW,COL  LAYER,ROW,COL  LAYER,ROW,COL  LAYER,ROW,COL
 ---------------------------------------------------------------------------
  1 -0.2738      0  0.1800      0 -0.1564      0 -0.1221      0 -0.1693    
   (  5, 21,  2)  (  5, 17,  1)  (  5, 16,  2)  (  5, 17,  1)  (  5, 19,  1)
  0 -0.9679E-01  0  0.8635E-01  0  0.6435E-01  0 -0.5693E-01  0  0.3403E-01
   (  5, 20,  1)  (  5, 18,  1)  (  5, 19,  1)  (  5, 18,  1)  (  5, 18,  4)
  0 -0.2691E-01  0  0.2334E-01  0 -0.1067E-01  0 -0.1118E-01  0 -0.7717E-02
   (  5, 17,  3)  (  5, 16,  3)  (  5, 15,  1)  (  5, 12,  5)  (  5, 19,  3)
  0  0.4859E-02  0  0.4234E-02  0  0.3584E-02  0  0.4867E-02  0  0.1781E-02
   (  5, 18,  3)  (  5, 18,  2)  (  5, 16,  3)  (  5, 19,  3)  (  5, 17,  2)
  0 -0.1683E-02  0 -0.1309E-02  0  0.9712E-03  0 -0.7006E-03  0 -0.4434E-03
   (  5, 17,  5)  (  5, 19,  2)  (  5, 19,  1)  (  5, 16,  2)  (  5, 18,  5)
  0 -0.3840E-03  0 -0.2514E-03  0 -0.2163E-03  0  0.2243E-03  0  0.1284E-03
   (  5, 20,  3)  (  5, 14,  2)  (  5, 19,  2)  (  5, 18,  1)  (  5,  6,  1)
  1 -0.4675E-03  0  0.3934E-03  0 -0.3319E-03  0  0.2415E-03  0 -0.1950E-03
   (  5,  6,  1)  (  5, 16,  1)  (  5, 16,  2)  (  5, 18,  1)  (  5, 17,  1)
  0  0.1794E-03  0 -0.1536E-03  0 -0.6586E-04  0 -0.3473E-04  0 -0.2834E-04
   (  5, 18,  1)  (  5, 19,  1)  (  5, 18,  2)  (  5, 20,  1)  (  5, 15,  4)
  0  0.2101E-04  0 -0.1564E-04  0 -0.1059E-04  0  0.1498E-04  0 -0.1121E-04
   (  5, 16,  4)  (  5, 17,  4)  (  5, 16,  2)  (  5, 16,  1)  (  5, 14,  5)
  0 -0.1106E-04  0 -0.5614E-05  0 -0.5169E-05  0  0.3718E-05  0 -0.2609E-05
   (  5, 20,  1)  (  5, 14,  2)  (  5, 18,  2)  (  5, 19,  3)  (  5, 19,  4)
  0 -0.1768E-05  0  0.1106E-05  0 -0.1362E-05  0  0.1013E-05  0  0.5640E-06
   (  5, 17,  1)  (  5, 16,  1)  (  5, 20,  2)  (  5, 19,  1)  (  5, 15,  2)
  1  0.1729E-05  0 -0.1958E-05  0  0.1805E-05  0  0.1227E-05  0  0.7018E-06
   (  5, 20,  1)  (  5, 17,  1)  (  5, 16,  2)  (  5, 18,  1)  (  5, 15,  3)
  1 -0.5170E-06
   (  5, 14,  3)

 MAXIMUM RESIDUAL FOR EACH ITERATION (1 INDICATES THE FIRST INNER ITERATION):

    RESIDUAL       RESIDUAL       RESIDUAL       RESIDUAL       RESIDUAL    
   LAYER,ROW,COL  LAYER,ROW,COL  LAYER,ROW,COL  LAYER,ROW,COL  LAYER,ROW,COL
 ---------------------------------------------------------------------------
  1  0.8041E-02  0  0.7275E-02  0  0.6573E-02  0  0.5629E-02  0  0.4524E-02
   (  3, 17, 17)  (  3, 17, 17)  (  3, 17, 17)  (  3, 17, 17)  (  3, 17, 17)
  0  0.3433E-02  0  0.2325E-02  0  0.1424E-02  0  0.8641E-03  0  0.5557E-03
   (  3, 17, 17)  (  3, 17, 17)  (  3, 17, 17)  (  3, 20, 11)  (  3, 20, 11)
  0  0.3646E-03  0  0.2788E-03  0  0.2654E-03  0  0.2168E-03  0  0.1709E-03
   (  3, 20, 11)  (  4, 16, 17)  (  4, 16, 17)  (  4, 16, 17)  (  4, 16, 17)
  0  0.1299E-03  0  0.1175E-03  0  0.8744E-04  0  0.6319E-04  0  0.4369E-04
   (  4, 16, 17)  (  4, 16, 17)  (  4, 16, 17)  (  4, 16, 17)  (  4, 16, 17)
  0  0.3071E-04  0  0.2421E-04  0  0.1946E-04  0  0.1778E-04  0  0.1114E-04
   (  4, 16, 17)  (  4, 16, 17)  (  4, 16, 17)  (  4, 16, 17)  (  4, 16, 17)
  0  0.6704E-05  0 -0.3620E-05  0 -0.2680E-05  0 -0.1690E-05  0  0.1169E-05
   (  4, 16, 17)  (  3, 21,  6)  (  3, 21,  6)  (  3, 21,  6)  (  3, 17, 17)
  1 -0.3316E-05  0 -0.2783E-05  0 -0.1227E-05  0  0.8075E-06  0  0.7195E-06
   (  5,  6,  1)  (  5,  6,  1)  (  5,  6,  1)  (  5, 16, 17)  (  5, 16, 17)
  0 -0.5522E-06  0  0.5418E-06  0  0.4259E-06  0  0.2905E-06  0  0.2031E-06
   (  4, 18, 14)  (  4, 20,  2)  (  4, 20,  2)  (  4, 20,  2)  (  4, 20,  2)
  0 -0.1502E-06  0 -0.1195E-06  0 -0.1101E-06  0 -0.8105E-07  0 -0.5663E-07
   (  3, 21,  4)  (  3, 21,  4)  (  3, 21,  4)  (  3, 21,  4)  (  3, 21,  4)
  0  0.3540E-07  0 -0.2926E-07  0  0.3233E-07  0 -0.3535E-07  0 -0.2895E-07
   (  2, 21,  4)  (  4, 19,  6)  (  4, 21,  1)  (  4, 20,  2)  (  4, 20,  2)
  0 -0.2030E-07  0 -0.1953E-07  0 -0.1426E-07  0 -0.1213E-07  0 -0.6076E-08
   (  4, 20,  2)  (  4, 20,  2)  (  4, 20,  2)  (  4, 20,  2)  (  4, 20,  2)
  1  0.1096E-07  0  0.7450E-08  0  0.4530E-08  0 -0.3868E-08  0 -0.3292E-08
   (  2, 21,  4)  (  2, 21,  4)  (  2, 21,  4)  (  3, 18, 15)  (  3, 18, 15)
  1 -0.3159E-08
   (  3, 18, 15)



 OUTPUT CONTROL FOR STRESS PERIOD   28   TIME STEP    2
    SAVE HEAD FOR ALL LAYERS
    SAVE DRAWDOWN FOR ALL LAYERS
    SAVE BUDGET
    PRINT BUDGET
 UBDSV1 SAVING "         STORAGE" ON UNIT   9 AT TIME STEP  2, STRESS PERIOD  28
 UBDSV2 SAVING "   CONSTANT HEAD" ON UNIT   9 AT TIME STEP  2, STRESS PERIOD  28
 UBDSV1 SAVING "FLOW RIGHT FACE " ON UNIT   9 AT TIME STEP  2, STRESS PERIOD  28
 UBDSV1 SAVING "FLOW FRONT FACE " ON UNIT   9 AT TIME STEP  2, STRESS PERIOD  28
 UBDSV1 SAVING "FLOW LOWER FACE " ON UNIT   9 AT TIME STEP  2, STRESS PERIOD  28
 UBDSV3 SAVING "        RECHARGE" ON UNIT   9 AT TIME STEP  2, STRESS PERIOD  28

 HEAD WILL BE SAVED ON UNIT   37 AT END OF TIME STEP    2, STRESS PERIOD   28

 DRAWDOWN WILL BE SAVED ON UNIT   38 AT END OF TIME STEP    2, STRESS PERIOD   28
1
  VOLUMETRIC BUDGET FOR ENTIRE MODEL AT END OF TIME STEP    2, STRESS PERIOD  28
  ------------------------------------------------------------------------------

     CUMULATIVE VOLUMES      L**3       RATES FOR THIS TIME STEP      L**3/T
     ------------------                 ------------------------

           IN:                                      IN:
           ---                                      ---
             STORAGE =        6723.4546               STORAGE =       2.3461E-03
       CONSTANT HEAD =        8820.2148         CONSTANT HEAD =       1.1658E-03
            RECHARGE =         346.4939              RECHARGE =       9.7813E-05

            TOTAL IN =       15890.1641              TOTAL IN =       3.6097E-03

          OUT:                                     OUT:
          ----                                     ----
             STORAGE =        2624.5713               STORAGE =           0.0000
       CONSTANT HEAD =       13265.9580         CONSTANT HEAD =       3.6098E-03
            RECHARGE =           0.0000              RECHARGE =           0.0000

           TOTAL OUT =       15890.5293             TOTAL OUT =       3.6098E-03

            IN - OUT =          -0.3652              IN - OUT =      -8.4518E-08

 PERCENT DISCREPANCY =          -0.00     PERCENT DISCREPANCY =          -0.00






         TIME SUMMARY AT END OF TIME STEP    2 IN STRESS PERIOD   28
                    SECONDS     MINUTES      HOURS       DAYS        YEARS
                    -----------------------------------------------------------
   TIME STEP LENGTH  86400.      1440.0      24.000      1.0000     2.73785E-03
 STRESS PERIOD TIME 1.72800E+05  2880.0      48.000      2.0000     5.47570E-03
         TOTAL TIME 3.54240E+06  59040.      984.00      41.000     0.11225    
1

 SOLVING FOR HEAD 
     4 CALLS TO PCG ROUTINE FOR TIME STEP   3 IN STRESS PERIOD   28
    62 TOTAL ITERATIONS

 MAXIMUM HEAD CHANGE FOR EACH ITERATION (1 INDICATES THE FIRST INNER ITERATION):

    HEAD CHANGE    HEAD CHANGE    HEAD CHANGE    HEAD CHANGE    HEAD CHANGE 
   LAYER,ROW,COL  LAYER,ROW,COL  LAYER,ROW,COL  LAYER,ROW,COL  LAYER,ROW,COL
 ---------------------------------------------------------------------------
  1 -0.2809      0  0.1830      0 -0.1605      0 -0.1249      0 -0.1688    
   (  5, 21,  2)  (  5, 17,  1)  (  5, 16,  2)  (  5, 17,  1)  (  5, 19,  1)
  0 -0.9980E-01  0  0.8712E-01  0  0.6480E-01  0 -0.5897E-01  0  0.3462E-01
   (  5, 20,  1)  (  5, 18,  1)  (  5, 17,  3)  (  5, 18,  1)  (  5, 18,  4)
  0 -0.2876E-01  0  0.2369E-01  0 -0.1621E-01  0 -0.1219E-01  0 -0.7325E-02
   (  5, 17,  3)  (  5, 16,  3)  (  5, 15,  1)  (  5, 12,  5)  (  5, 19,  3)
  0 -0.6045E-02  0  0.6247E-02  0  0.3937E-02  0  0.4928E-02  0  0.1951E-02
   (  5, 18,  1)  (  5, 18,  2)  (  5, 16,  1)  (  5, 19,  3)  (  5, 17,  2)
  0 -0.1513E-02  0  0.1412E-02  0 -0.1042E-02  0  0.8271E-03  0 -0.5401E-03
   (  5, 16,  1)  (  5, 15,  1)  (  5, 19,  2)  (  5, 20,  1)  (  5, 18,  5)
  0 -0.3920E-03  0 -0.3419E-03  0 -0.2145E-03  0 -0.1746E-03  0  0.1241E-03
   (  5, 20,  3)  (  5, 14,  2)  (  5, 18,  1)  (  5,  6,  1)  (  5, 17,  2)
  1 -0.3033E-03  0  0.5243E-03  0  0.6488E-03  0 -0.3084E-03  0  0.2050E-03
   (  5, 16,  1)  (  5, 19,  1)  (  5, 12,  4)  (  5, 12,  1)  (  5, 14,  3)
  0  0.1969E-03  0 -0.1737E-03  0  0.7186E-04  0  0.4368E-04  0 -0.3558E-04
   (  5, 18,  1)  (  5, 19,  1)  (  5, 20,  1)  (  5, 14,  4)  (  5, 15,  4)
  0 -0.2428E-04  0  0.1703E-04  0 -0.2737E-04  0 -0.1721E-04  0 -0.1269E-04
   (  5, 17,  1)  (  5, 18,  2)  (  5, 16,  2)  (  5, 19,  2)  (  5, 16,  5)
  0 -0.1040E-04  0 -0.6456E-05  0  0.6877E-05  0 -0.5213E-05  0  0.4147E-05
   (  5, 20,  1)  (  5, 20,  3)  (  5, 17,  1)  (  5, 18,  1)  (  5, 15,  1)
  0 -0.1905E-05  0  0.2767E-05  0 -0.1641E-05  0  0.8135E-06  1  0.1635E-05
   (  5, 16,  1)  (  5, 19,  1)  (  5, 20,  1)  (  5, 20,  2)  (  5, 18,  5)
  0  0.2280E-05  0  0.2302E-05  0 -0.1590E-05  0  0.1437E-05  0  0.1247E-05
   (  5, 20,  1)  (  5, 16,  2)  (  5, 17,  1)  (  5, 13,  1)  (  5, 18,  1)
  0 -0.6899E-06  1  0.3768E-06
   (  5, 20,  2)  (  5, 15,  4)

 MAXIMUM RESIDUAL FOR EACH ITERATION (1 INDICATES THE FIRST INNER ITERATION):

    RESIDUAL       RESIDUAL       RESIDUAL       RESIDUAL       RESIDUAL    
   LAYER,ROW,COL  LAYER,ROW,COL  LAYER,ROW,COL  LAYER,ROW,COL  LAYER,ROW,COL
 ---------------------------------------------------------------------------
  1  0.8032E-02  0  0.7262E-02  0  0.6557E-02  0  0.5627E-02  0  0.4550E-02
   (  3, 17, 17)  (  3, 17, 17)  (  3, 17, 17)  (  3, 17, 17)  (  3, 17, 17)
  0  0.3474E-02  0  0.2368E-02  0  0.1447E-02  0  0.8663E-03  0  0.5556E-03
   (  3, 17, 17)  (  3, 17, 17)  (  3, 17, 17)  (  3, 20, 11)  (  3, 20, 11)
  0  0.3630E-03  0  0.2926E-03  0  0.2640E-03  0  0.2119E-03  0  0.1681E-03
   (  3, 20, 11)  (  4, 16, 17)  (  4, 16, 17)  (  4, 16, 17)  (  4, 16, 17)
  0  0.1369E-03  0  0.1171E-03  0  0.8696E-04  0  0.6318E-04  0  0.4393E-04
   (  4, 16, 17)  (  4, 16, 17)  (  4, 16, 17)  (  4, 16, 17)  (  4, 16, 17)
  0  0.3545E-04  0  0.3067E-04  0  0.2624E-04  0  0.1796E-04  0  0.1114E-04
   (  4, 16, 17)  (  4, 16, 17)  (  4, 16, 17)  (  4, 16, 17)  (  4, 16, 17)
  0 -0.6741E-05  0 -0.4195E-05  0 -0.3410E-05  0 -0.1739E-05  0  0.1285E-05
   (  3, 21,  6)  (  3, 21,  6)  (  3, 21,  6)  (  3, 21,  6)  (  3, 17, 17)
  1  0.3770E-05  0 -0.2271E-05  0  0.1355E-05  0  0.1017E-05  0 -0.8932E-06
   (  2, 21,  4)  (  3, 21,  4)  (  5, 11,  1)  (  5, 16, 17)  (  4, 18, 14)
  0 -0.7835E-06  0  0.6119E-06  0  0.5149E-06  0  0.3256E-06  0  0.2399E-06
   (  4, 18, 14)  (  4, 20,  2)  (  4, 20,  2)  (  4, 20,  2)  (  4, 20,  2)
  0 -0.1850E-06  0 -0.1733E-06  0 -0.1337E-06  0 -0.9716E-07  0 -0.6788E-07
   (  3, 20,  4)  (  3, 20,  4)  (  3, 21,  4)  (  3, 21,  4)  (  3, 21,  4)
  0  0.4374E-07  0  0.3948E-07  0 -0.3718E-07  0 -0.3616E-07  0 -0.3517E-07
   (  2, 21,  4)  (  4, 21,  1)  (  4, 20,  2)  (  4, 20,  2)  (  4, 20,  2)
  0 -0.3268E-07  0 -0.2527E-07  0 -0.1552E-07  0 -0.1174E-07  1  0.2098E-07
   (  4, 20,  2)  (  4, 20,  2)  (  4, 20,  2)  (  4, 20,  2)  (  2, 21,  4)
  0  0.1619E-07  0  0.8574E-08  0  0.7171E-08  0  0.5240E-08  0  0.6053E-08
   (  2, 21,  4)  (  2, 21,  4)  (  2, 21,  4)  (  4, 20,  2)  (  4, 20,  2)
  0  0.5765E-08  1  0.4966E-08
   (  4, 20,  2)  (  4, 20,  2)



 OUTPUT CONTROL FOR STRESS PERIOD   28   TIME STEP    3
    SAVE HEAD FOR ALL LAYERS
    SAVE DRAWDOWN FOR ALL LAYERS
    SAVE BUDGET
    PRINT BUDGET
 UBDSV1 SAVING "         STORAGE" ON UNIT   9 AT TIME STEP  3, STRESS PERIOD  28
 UBDSV2 SAVING "   CONSTANT HEAD" ON UNIT   9 AT TIME STEP  3, STRESS PERIOD  28
 UBDSV1 SAVING "FLOW RIGHT FACE " ON UNIT   9 AT TIME STEP  3, STRESS PERIOD  28
 UBDSV1 SAVING "FLOW FRONT FACE " ON UNIT   9 AT TIME STEP  3, STRESS PERIOD  28
 UBDSV1 SAVING "FLOW LOWER FACE " ON UNIT   9 AT TIME STEP  3, STRESS PERIOD  28
 UBDSV3 SAVING "        RECHARGE" ON UNIT   9 AT TIME STEP  3, STRESS PERIOD  28

 HEAD WILL BE SAVED ON UNIT   37 AT END OF TIME STEP    3, STRESS PERIOD   28

 DRAWDOWN WILL BE SAVED ON UNIT   38 AT END OF TIME STEP    3, STRESS PERIOD   28
1
  VOLUMETRIC BUDGET FOR ENTIRE MODEL AT END OF TIME STEP    3, STRESS PERIOD  28
  ------------------------------------------------------------------------------

     CUMULATIVE VOLUMES      L**3       RATES FOR THIS TIME STEP      L**3/T
     ------------------                 ------------------------

           IN:                                      IN:
           ---                                      ---
             STORAGE =        6977.2031               STORAGE =       2.9369E-03
       CONSTANT HEAD =        9006.2051         CONSTANT HEAD =       2.1527E-03
            RECHARGE =         354.9450              RECHARGE =       9.7813E-05

            TOTAL IN =       16338.3535              TOTAL IN =       5.1874E-03

          OUT:                                     OUT:
          ----                                     ----
             STORAGE =        2624.5713               STORAGE =           0.0000
       CONSTANT HEAD =       13714.1562         CONSTANT HEAD =       5.1875E-03
            RECHARGE =           0.0000              RECHARGE =           0.0000

           TOTAL OUT =       16338.7275             TOTAL OUT =       5.1875E-03

            IN - OUT =          -0.3740              IN - OUT =      -9.8720E-08

 PERCENT DISCREPANCY =          -0.00     PERCENT DISCREPANCY =          -0.00






         TIME SUMMARY AT END OF TIME STEP    3 IN STRESS PERIOD   28
                    SECONDS     MINUTES      HOURS       DAYS        YEARS
                    -----------------------------------------------------------
   TIME STEP LENGTH  86400.      1440.0      24.000      1.0000     2.73785E-03
 STRESS PERIOD TIME 2.59200E+05  4320.0      72.000      3.0000     8.21355E-03
         TOTAL TIME 3.62880E+06  60480.      1008.0      42.000     0.11499    
1
1
                            STRESS PERIOD NO.   29, LENGTH =   86400.00    
                            -----------------------------------------------

                              NUMBER OF TIME STEPS =     1

                               MULTIPLIER FOR DELT =     1.000

                            INITIAL TIME STEP SIZE =   86400.00    

 REUSING RECH FROM LAST STRESS PERIOD

 CHD NO.   LAYER   ROW   COL    START HEAD        END HEAD         IFACE           
 ----------------------------------------------------------------------------------
      1      4      1      1       109.7           109.6           0.000    
      2      5      1      1       109.7           109.6           0.000    
      3      4      1      2       109.7           109.6           0.000    
      4      5      1      2       109.7           109.6           0.000    
      5      4      1      3       109.7           109.6           0.000    
      6      5      1      3       109.7           109.6           0.000    
      7      4      1      4       109.7           109.6           0.000    
      8      5      1      4       109.7           109.6           0.000    
      9      4      1      5       109.7           109.6           0.000    
     10      5      1      5       109.7           109.6           0.000    
     11      4      1      6       109.7           109.6           0.000    
     12      5      1      6       109.7           109.6           0.000    
     13      4      1      7       109.7           109.6           0.000    
     14      5      1      7       109.7           109.6           0.000    
     15      4      1      8       109.7           109.6           0.000    
     16      5      1      8       109.7           109.6           0.000    
     17      4      1      9       109.7           109.6           0.000    
     18      5      1      9       109.7           109.6           0.000    
     19      4      1     10       109.7           109.6           0.000    
     20      5      1     10       109.7           109.6           0.000    
     21      4      1     11       109.7           109.6           0.000    
     22      5      1     11       109.7           109.6           0.000    
     23      4      1     12       109.7           109.6           0.000    
     24      5      1     12       109.7           109.6           0.000    
     25      4      1     13       109.7           109.6           0.000    
     26      5      1     13       109.7           109.6           0.000    
     27      4      1     14       109.7           109.6           0.000    
     28      5      1     14       109.7           109.6           0.000    
     29      4      1     15       109.7           109.6           0.000    
     30      5      1     15       109.7           109.6           0.000    
     31      4      1     16       109.7           109.6           0.000    
     32      5      1     16       109.7           109.6           0.000    
     33      4      1     17       109.7           109.6           0.000    
     34      5      1     17       109.7           109.6           0.000    
     35      4     17     17       109.4           109.3           0.000    
     36      5     17     17       109.4           109.3           0.000    
     37      4     18     17       109.4           109.3           0.000    
     38      5     18     17       109.4           109.3           0.000    
     39      4     18     16       109.4           109.3           0.000    
     40      5     18     16       109.4           109.3           0.000    
     41      4     19     16       109.4           109.3           0.000    
     42      5     19     16       109.4           109.3           0.000    
     43      4     19     15       109.4           109.3           0.000    
     44      5     19     15       109.4           109.3           0.000    
     45      4     20     15       109.4           109.3           0.000    
     46      5     20     15       109.4           109.3           0.000    
     47      4     20     14       109.4           109.3           0.000    
     48      5     20     14       109.4           109.3           0.000    
     49      4     20     13       109.4           109.3           0.000    
     50      5     20     13       109.4           109.3           0.000    
     51      4     20     12       109.4           109.3           0.000    
     52      5     20     12       109.4           109.3           0.000    
     53      4     20     11       109.4           109.3           0.000    
     54      5     20     11       109.4           109.3           0.000    
     55      4     21     11       109.4           109.3           0.000    
     56      5     21     11       109.4           109.3           0.000    
     57      4     21     10       109.4           109.3           0.000    
     58      5     21     10       109.4           109.3           0.000    
     59      4     21      9       109.4           109.3           0.000    
     60      5     21      9       109.4           109.3           0.000    
     61      4     21      8       109.4           109.3           0.000    
     62      5     21      8       109.4           109.3           0.000    
     63      4     21      7       109.4           109.3           0.000    
     64      5     21      7       109.4           109.3           0.000    
     65      4     21      6       109.4           109.3           0.000    
     66      5     21      6       109.4           109.3           0.000    
     67      4     21      5       109.4           109.3           0.000    
     68      5     21      5       109.4           109.3           0.000    
     69      4     22      5       109.4           109.3           0.000    
     70      5     22      5       109.4           109.3           0.000    
     71      4     22      4       109.4           109.3           0.000    
     72      5     22      4       109.4           109.3           0.000    
     73      4     22      3       109.4           109.3           0.000    
     74      5     22      3       109.4           109.3           0.000    
     75      4     22      2       109.4           109.3           0.000    
     76      5     22      2       109.4           109.3           0.000    
     77      4     22      1       109.4           109.3           0.000    
     78      5     22      1       109.4           109.3           0.000    


     78 TIME-VARIANT SPECIFIED-HEAD CELLS

 SOLVING FOR HEAD 


     4 CALLS TO PCG ROUTINE FOR TIME STEP   1 IN STRESS PERIOD   29
    58 TOTAL ITERATIONS

 MAXIMUM HEAD CHANGE FOR EACH ITERATION (1 INDICATES THE FIRST INNER ITERATION):

    HEAD CHANGE    HEAD CHANGE    HEAD CHANGE    HEAD CHANGE    HEAD CHANGE 
   LAYER,ROW,COL  LAYER,ROW,COL  LAYER,ROW,COL  LAYER,ROW,COL  LAYER,ROW,COL
 ---------------------------------------------------------------------------
  1 -0.1806      0  0.1171      0 -0.1034      0 -0.8027E-01  0 -0.1067    
   (  5, 21,  2)  (  5, 17,  1)  (  5, 16,  2)  (  5, 17,  1)  (  5, 19,  1)
  0 -0.6336E-01  0  0.5454E-01  0  0.4032E-01  0 -0.3577E-01  0  0.2053E-01
   (  5, 20,  1)  (  5, 18,  1)  (  5, 17,  3)  (  5, 18,  1)  (  5, 18,  4)
  0 -0.1539E-01  0 -0.1072E-01  0  0.1260E-01  0 -0.7340E-02  0 -0.4755E-02
   (  5, 14,  5)  (  5, 17,  2)  (  5, 16,  3)  (  5, 12,  5)  (  5, 19,  3)
  0  0.4490E-02  0 -0.2167E-02  0  0.2549E-02  0  0.2782E-02  0  0.1272E-02
   (  5, 18,  2)  (  5, 19,  1)  (  5, 16,  1)  (  5, 19,  3)  (  5, 17,  2)
  0 -0.9414E-03  0  0.7560E-03  0 -0.6265E-03  0 -0.4484E-03  0 -0.3252E-03
   (  5, 16,  1)  (  5, 20,  3)  (  5, 20,  1)  (  5, 19,  3)  (  5, 18,  5)
  0 -0.2161E-03  0 -0.1754E-03  0 -0.1010E-03  0  0.1395E-03  0 -0.7096E-04
   (  5, 20,  3)  (  5, 14,  2)  (  5, 19,  2)  (  5, 18,  1)  (  5, 15,  2)
  1  0.2335E-03  0  0.5049E-03  0 -0.5570E-03  0  0.4089E-03  0  0.3855E-03
   (  5, 16,  1)  (  5, 20,  1)  (  5, 18,  1)  (  5, 17,  2)  (  5, 18,  1)
  0 -0.1708E-03  0  0.1586E-03  0 -0.9340E-04  0  0.6120E-04  0 -0.4486E-04
   (  5, 12,  4)  (  5, 20,  1)  (  5, 19,  1)  (  5, 15,  4)  (  5, 18,  3)
  0  0.3456E-04  0  0.2497E-04  0 -0.1862E-04  0 -0.1274E-04  0  0.8248E-05
   (  5, 14,  5)  (  5, 17,  3)  (  5, 16,  2)  (  5, 19,  3)  (  5, 19,  4)
  0 -0.6984E-05  0  0.4780E-05  0  0.5097E-05  0 -0.3295E-05  0  0.2875E-05
   (  5, 18,  3)  (  5, 17,  1)  (  5, 17,  4)  (  5, 13,  1)  (  5, 18,  3)
  0 -0.2267E-05  0  0.1763E-05  0  0.1327E-05  0 -0.1088E-05  0  0.7509E-06
   (  5, 19,  3)  (  5, 16,  1)  (  5, 19,  2)  (  5, 20,  1)  (  5, 19,  1)
  1 -0.1187E-05  0  0.9746E-06  1 -0.7295E-06
   (  5, 18,  1)  (  5, 16,  2)  (  5, 16,  2)

 MAXIMUM RESIDUAL FOR EACH ITERATION (1 INDICATES THE FIRST INNER ITERATION):

    RESIDUAL       RESIDUAL       RESIDUAL       RESIDUAL       RESIDUAL    
   LAYER,ROW,COL  LAYER,ROW,COL  LAYER,ROW,COL  LAYER,ROW,COL  LAYER,ROW,COL
 ---------------------------------------------------------------------------
  1  0.4427E-02  0  0.3963E-02  0  0.3541E-02  0  0.3000E-02  0  0.2380E-02
   (  3, 17, 17)  (  3, 17, 17)  (  3, 17, 17)  (  3, 17, 17)  (  3, 17, 17)
  0  0.1771E-02  0  0.1163E-02  0  0.6789E-03  0  0.3890E-03  0  0.2385E-03
   (  3, 17, 17)  (  3, 17, 17)  (  3, 17, 17)  (  3, 20, 11)  (  3, 20, 11)
  0 -0.1873E-03  0  0.1666E-03  0  0.1435E-03  0  0.1135E-03  0  0.8884E-04
   (  4, 21,  2)  (  4, 16, 17)  (  4, 16, 17)  (  4, 16, 17)  (  4, 16, 17)
  0  0.6454E-04  0  0.5748E-04  0  0.4337E-04  0  0.3073E-04  0  0.2083E-04
   (  4, 16, 17)  (  4, 16, 17)  (  4, 16, 17)  (  4, 16, 17)  (  4, 16, 17)
  0 -0.1908E-04  0 -0.1623E-04  0 -0.1387E-04  0 -0.1007E-04  0 -0.6495E-05
   (  3, 21,  6)  (  3, 21,  6)  (  3, 21,  6)  (  3, 21,  6)  (  3, 21,  6)
  0 -0.3997E-05  0 -0.2137E-05  0 -0.1805E-05  0 -0.8985E-06  0 -0.7602E-06
   (  3, 21,  6)  (  3, 21,  6)  (  3, 21,  6)  (  3, 21,  6)  (  3, 21,  5)
  1 -0.4886E-05  0 -0.4304E-05  0 -0.3030E-05  0 -0.1542E-05  0  0.1634E-05
   (  3, 21,  1)  (  3, 21,  1)  (  3, 21,  1)  (  3, 21,  1)  (  4, 21,  2)
  0  0.1547E-05  0  0.1217E-05  0  0.1012E-05  0  0.7876E-06  0  0.6216E-06
   (  4, 21,  2)  (  4, 21,  2)  (  4, 21,  2)  (  4, 21,  2)  (  4, 21,  2)
  0  0.4367E-06  0  0.2537E-06  0  0.2015E-06  0  0.9937E-07  0  0.7747E-07
   (  4, 21,  2)  (  4, 21,  2)  (  4, 21,  2)  (  4, 20,  4)  (  4, 20,  4)
  0 -0.6277E-07  0 -0.6371E-07  0 -0.4356E-07  0 -0.3826E-07  0 -0.2659E-07
   (  4, 19,  1)  (  4, 19,  1)  (  4, 20,  1)  (  4, 20,  1)  (  4, 20,  1)
  0 -0.2038E-07  0 -0.1803E-07  0 -0.1470E-07  0  0.1115E-07  0  0.7776E-08
   (  4, 21,  2)  (  4, 21,  2)  (  4, 21,  2)  (  4, 20,  2)  (  4, 20,  2)
  1 -0.1653E-07  0 -0.1513E-07  1 -0.1494E-07
   (  3, 21,  1)  (  3, 21,  1)  (  3, 21,  1)



 OUTPUT CONTROL FOR STRESS PERIOD   29   TIME STEP    1
    SAVE HEAD FOR ALL LAYERS
    SAVE DRAWDOWN FOR ALL LAYERS
    SAVE BUDGET
    PRINT BUDGET
 UBDSV1 SAVING "         STORAGE" ON UNIT   9 AT TIME STEP  1, STRESS PERIOD  29
 UBDSV2 SAVING "   CONSTANT HEAD" ON UNIT   9 AT TIME STEP  1, STRESS PERIOD  29
 UBDSV1 SAVING "FLOW RIGHT FACE " ON UNIT   9 AT TIME STEP  1, STRESS PERIOD  29
 UBDSV1 SAVING "FLOW FRONT FACE " ON UNIT   9 AT TIME STEP  1, STRESS PERIOD  29
 UBDSV1 SAVING "FLOW LOWER FACE " ON UNIT   9 AT TIME STEP  1, STRESS PERIOD  29
 UBDSV3 SAVING "        RECHARGE" ON UNIT   9 AT TIME STEP  1, STRESS PERIOD  29

 HEAD WILL BE SAVED ON UNIT   37 AT END OF TIME STEP    1, STRESS PERIOD   29

 DRAWDOWN WILL BE SAVED ON UNIT   38 AT END OF TIME STEP    1, STRESS PERIOD   29
1
  VOLUMETRIC BUDGET FOR ENTIRE MODEL AT END OF TIME STEP    1, STRESS PERIOD  29
  ------------------------------------------------------------------------------

     CUMULATIVE VOLUMES      L**3       RATES FOR THIS TIME STEP      L**3/T
     ------------------                 ------------------------

           IN:                                      IN:
           ---                                      ---
             STORAGE =        7234.2612               STORAGE =       2.9752E-03
       CONSTANT HEAD =        9164.0947         CONSTANT HEAD =       1.8274E-03
            RECHARGE =         363.3961              RECHARGE =       9.7813E-05

            TOTAL IN =       16761.7520              TOTAL IN =       4.9004E-03

          OUT:                                     OUT:
          ----                                     ----
             STORAGE =        2624.5713               STORAGE =           0.0000
       CONSTANT HEAD =       14137.5615         CONSTANT HEAD =       4.9005E-03
            RECHARGE =           0.0000              RECHARGE =           0.0000

           TOTAL OUT =       16762.1328             TOTAL OUT =       4.9005E-03

            IN - OUT =          -0.3809              IN - OUT =      -7.5437E-08

 PERCENT DISCREPANCY =          -0.00     PERCENT DISCREPANCY =          -0.00






         TIME SUMMARY AT END OF TIME STEP    1 IN STRESS PERIOD   29
                    SECONDS     MINUTES      HOURS       DAYS        YEARS
                    -----------------------------------------------------------
   TIME STEP LENGTH  86400.      1440.0      24.000      1.0000     2.73785E-03
 STRESS PERIOD TIME  86400.      1440.0      24.000      1.0000     2.73785E-03
         TOTAL TIME 3.71520E+06  61920.      1032.0      43.000     0.11773    
1
1
                            STRESS PERIOD NO.   30, LENGTH =   86400.00    
                            -----------------------------------------------

                              NUMBER OF TIME STEPS =     1

                               MULTIPLIER FOR DELT =     1.000

                            INITIAL TIME STEP SIZE =   86400.00    

 REUSING RECH FROM LAST STRESS PERIOD

 CHD NO.   LAYER   ROW   COL    START HEAD        END HEAD         IFACE           
 ----------------------------------------------------------------------------------
      1      4      1      1       109.6           109.6           0.000    
      2      5      1      1       109.6           109.6           0.000    
      3      4      1      2       109.6           109.6           0.000    
      4      5      1      2       109.6           109.6           0.000    
      5      4      1      3       109.6           109.6           0.000    
      6      5      1      3       109.6           109.6           0.000    
      7      4      1      4       109.6           109.6           0.000    
      8      5      1      4       109.6           109.6           0.000    
      9      4      1      5       109.6           109.6           0.000    
     10      5      1      5       109.6           109.6           0.000    
     11      4      1      6       109.6           109.6           0.000    
     12      5      1      6       109.6           109.6           0.000    
     13      4      1      7       109.6           109.6           0.000    
     14      5      1      7       109.6           109.6           0.000    
     15      4      1      8       109.6           109.6           0.000    
     16      5      1      8       109.6           109.6           0.000    
     17      4      1      9       109.6           109.6           0.000    
     18      5      1      9       109.6           109.6           0.000    
     19      4      1     10       109.6           109.6           0.000    
     20      5      1     10       109.6           109.6           0.000    
     21      4      1     11       109.6           109.6           0.000    
     22      5      1     11       109.6           109.6           0.000    
     23      4      1     12       109.6           109.6           0.000    
     24      5      1     12       109.6           109.6           0.000    
     25      4      1     13       109.6           109.6           0.000    
     26      5      1     13       109.6           109.6           0.000    
     27      4      1     14       109.6           109.6           0.000    
     28      5      1     14       109.6           109.6           0.000    
     29      4      1     15       109.6           109.6           0.000    
     30      5      1     15       109.6           109.6           0.000    
     31      4      1     16       109.6           109.6           0.000    
     32      5      1     16       109.6           109.6           0.000    
     33      4      1     17       109.6           109.6           0.000    
     34      5      1     17       109.6           109.6           0.000    
     35      4     17     17       109.3           109.3           0.000    
     36      5     17     17       109.3           109.3           0.000    
     37      4     18     17       109.3           109.3           0.000    
     38      5     18     17       109.3           109.3           0.000    
     39      4     18     16       109.3           109.3           0.000    
     40      5     18     16       109.3           109.3           0.000    
     41      4     19     16       109.3           109.3           0.000    
     42      5     19     16       109.3           109.3           0.000    
     43      4     19     15       109.3           109.3           0.000    
     44      5     19     15       109.3           109.3           0.000    
     45      4     20     15       109.3           109.3           0.000    
     46      5     20     15       109.3           109.3           0.000    
     47      4     20     14       109.3           109.3           0.000    
     48      5     20     14       109.3           109.3           0.000    
     49      4     20     13       109.3           109.3           0.000    
     50      5     20     13       109.3           109.3           0.000    
     51      4     20     12       109.3           109.3           0.000    
     52      5     20     12       109.3           109.3           0.000    
     53      4     20     11       109.3           109.3           0.000    
     54      5     20     11       109.3           109.3           0.000    
     55      4     21     11       109.3           109.3           0.000    
     56      5     21     11       109.3           109.3           0.000    
     57      4     21     10       109.3           109.3           0.000    
     58      5     21     10       109.3           109.3           0.000    
     59      4     21      9       109.3           109.3           0.000    
     60      5     21      9       109.3           109.3           0.000    
     61      4     21      8       109.3           109.3           0.000    
     62      5     21      8       109.3           109.3           0.000    
     63      4     21      7       109.3           109.2           0.000    
     64      5     21      7       109.3           109.2           0.000    
     65      4     21      6       109.3           109.2           0.000    
     66      5     21      6       109.3           109.2           0.000    
     67      4     21      5       109.3           109.2           0.000    
     68      5     21      5       109.3           109.2           0.000    
     69      4     22      5       109.3           109.2           0.000    
     70      5     22      5       109.3           109.2           0.000    
     71      4     22      4       109.3           109.2           0.000    
     72      5     22      4       109.3           109.2           0.000    
     73      4     22      3       109.3           109.2           0.000    
     74      5     22      3       109.3           109.2           0.000    
     75      4     22      2       109.3           109.2           0.000    
     76      5     22      2       109.3           109.2           0.000    
     77      4     22      1       109.3           109.2           0.000    
     78      5     22      1       109.3           109.2           0.000    


     78 TIME-VARIANT SPECIFIED-HEAD CELLS

 SOLVING FOR HEAD 


     4 CALLS TO PCG ROUTINE FOR TIME STEP   1 IN STRESS PERIOD   30
    57 TOTAL ITERATIONS

 MAXIMUM HEAD CHANGE FOR EACH ITERATION (1 INDICATES THE FIRST INNER ITERATION):

    HEAD CHANGE    HEAD CHANGE    HEAD CHANGE    HEAD CHANGE    HEAD CHANGE 
   LAYER,ROW,COL  LAYER,ROW,COL  LAYER,ROW,COL  LAYER,ROW,COL  LAYER,ROW,COL
 ---------------------------------------------------------------------------
  1 -0.1298      0  0.6970E-01  0 -0.5980E-01  0 -0.4797E-01  0 -0.6549E-01
   (  5, 21,  2)  (  5, 17,  1)  (  5, 15,  2)  (  5, 17,  1)  (  5, 19,  1)
  0 -0.3541E-01  0  0.3060E-01  0 -0.2628E-01  0 -0.2005E-01  0 -0.1508E-01
   (  5, 20,  1)  (  5, 18,  1)  (  5, 17,  1)  (  5, 18,  1)  (  5, 19,  1)
  0 -0.9569E-02  0  0.7671E-02  0 -0.3806E-02  0  0.3417E-02  0  0.2881E-02
   (  5, 18,  3)  (  5, 16,  3)  (  5, 15,  1)  (  5, 13,  1)  (  5, 15,  4)
  0  0.2447E-02  0  0.1221E-02  0  0.1559E-02  0  0.1420E-02  0 -0.7351E-03
   (  5, 18,  3)  (  5, 15,  3)  (  5, 17,  1)  (  5, 19,  3)  (  5, 18,  3)
  0 -0.5062E-03  0  0.3344E-03  0 -0.3648E-03  0  0.2684E-03  0 -0.1906E-03
   (  5, 17,  5)  (  5, 15,  1)  (  5, 19,  2)  (  5, 19,  1)  (  5, 18,  5)
  0 -0.1305E-03  0 -0.7949E-04  0  0.8526E-04  0 -0.6087E-04  0  0.3659E-04
   (  5, 20,  3)  (  5, 19,  5)  (  5, 18,  1)  (  5, 19,  2)  (  5,  6,  1)
  1  0.7463E-03  0 -0.4247E-03  0  0.6976E-03  0  0.6164E-03  0  0.5636E-03
   (  5, 18,  2)  (  5, 14,  1)  (  5, 14,  2)  (  5, 15,  1)  (  5, 18,  1)
  0  0.2942E-03  0  0.1779E-03  0  0.1614E-03  0 -0.1060E-03  0  0.8685E-04
   (  5, 17,  4)  (  5, 19,  3)  (  5, 15,  5)  (  5, 14,  5)  (  5, 13,  6)
  0  0.5057E-04  0  0.3670E-04  0 -0.2981E-04  0 -0.2151E-04  0 -0.1444E-04
   (  5, 19,  1)  (  5, 16,  5)  (  5, 16,  3)  (  5, 20,  4)  (  5, 13,  2)
  0  0.1357E-04  0 -0.1077E-04  0  0.8181E-05  0 -0.4342E-05  0  0.4757E-05
   (  5, 13,  1)  (  5, 20,  1)  (  5, 19,  1)  (  5, 16,  2)  (  5, 16,  1)
  0  0.3425E-05  0  0.1891E-05  0  0.1303E-05  0 -0.9664E-06  1 -0.1314E-05
   (  5, 20,  1)  (  5, 19,  3)  (  5, 18,  1)  (  5, 17,  1)  (  5, 15,  2)
  0  0.9292E-06  1 -0.9424E-06
   (  5, 13,  1)  (  5, 12,  1)

 MAXIMUM RESIDUAL FOR EACH ITERATION (1 INDICATES THE FIRST INNER ITERATION):

    RESIDUAL       RESIDUAL       RESIDUAL       RESIDUAL       RESIDUAL    
   LAYER,ROW,COL  LAYER,ROW,COL  LAYER,ROW,COL  LAYER,ROW,COL  LAYER,ROW,COL
 ---------------------------------------------------------------------------
  1  0.2542E-02  0  0.2309E-02  0  0.2048E-02  0  0.1730E-02  0  0.1353E-02
   (  3, 17, 17)  (  3, 17, 17)  (  3, 17, 17)  (  3, 17, 17)  (  3, 17, 17)
  0  0.1000E-02  0  0.6522E-03  0  0.3684E-03  0  0.1985E-03  0 -0.1197E-03
   (  3, 17, 17)  (  3, 17, 17)  (  3, 17, 17)  (  3, 20, 11)  (  4, 21,  2)
  0 -0.1052E-03  0 -0.8406E-04  0 -0.7695E-04  0  0.6344E-04  0  0.4948E-04
   (  4, 21,  2)  (  4, 21,  2)  (  4, 21,  2)  (  4, 16, 17)  (  4, 16, 17)
  0  0.3550E-04  0  0.3115E-04  0  0.2383E-04  0  0.1715E-04  0 -0.1187E-04
   (  4, 16, 17)  (  4, 16, 17)  (  4, 16, 17)  (  4, 16, 17)  (  3, 21,  6)
  0 -0.8924E-05  0 -0.8244E-05  0 -0.7088E-05  0 -0.5452E-05  0 -0.3533E-05
   (  3, 21,  6)  (  3, 21,  6)  (  3, 21,  6)  (  3, 21,  6)  (  3, 21,  6)
  0 -0.2055E-05  0 -0.1068E-05  0 -0.6581E-06  0 -0.4688E-06  0  0.3327E-06
   (  3, 21,  6)  (  3, 21,  6)  (  3, 21,  6)  (  3, 21,  5)  (  5, 15, 17)
  1 -0.6892E-05  0 -0.6278E-05  0 -0.5136E-05  0  0.4101E-05  0  0.3313E-05
   (  3, 18,  1)  (  3, 18,  1)  (  3, 18,  1)  (  4, 18,  2)  (  4, 19,  2)
  0  0.2662E-05  0  0.2323E-05  0  0.1923E-05  0  0.1197E-05  0  0.8453E-06
   (  4, 19,  2)  (  4, 19,  2)  (  4, 19,  2)  (  4, 19,  2)  (  4, 21,  2)
  0  0.7426E-06  0  0.6396E-06  0  0.4393E-06  0  0.2670E-06  0  0.1939E-06
   (  4, 21,  2)  (  4, 21,  2)  (  4, 21,  2)  (  4, 21,  2)  (  4, 21,  2)
  0  0.1265E-06  0  0.8576E-07  0 -0.6781E-07  0 -0.5016E-07  0 -0.4245E-07
   (  4, 20,  1)  (  4, 20,  1)  (  4, 20,  2)  (  4, 20,  2)  (  4, 20,  2)
  0 -0.2807E-07  0  0.1883E-07  0 -0.1401E-07  0 -0.1099E-07  1 -0.1220E-07
   (  4, 20,  2)  (  4, 20,  3)  (  4, 21,  2)  (  4, 21,  2)  (  3, 20,  2)
  0 -0.1110E-07  1 -0.1071E-07
   (  3, 20,  2)  (  3, 20,  2)



 OUTPUT CONTROL FOR STRESS PERIOD   30   TIME STEP    1
    SAVE HEAD FOR ALL LAYERS
    SAVE DRAWDOWN FOR ALL LAYERS
    SAVE BUDGET
    PRINT BUDGET
 UBDSV1 SAVING "         STORAGE" ON UNIT   9 AT TIME STEP  1, STRESS PERIOD  30
 UBDSV2 SAVING "   CONSTANT HEAD" ON UNIT   9 AT TIME STEP  1, STRESS PERIOD  30
 UBDSV1 SAVING "FLOW RIGHT FACE " ON UNIT   9 AT TIME STEP  1, STRESS PERIOD  30
 UBDSV1 SAVING "FLOW FRONT FACE " ON UNIT   9 AT TIME STEP  1, STRESS PERIOD  30
 UBDSV1 SAVING "FLOW LOWER FACE " ON UNIT   9 AT TIME STEP  1, STRESS PERIOD  30
 UBDSV3 SAVING "        RECHARGE" ON UNIT   9 AT TIME STEP  1, STRESS PERIOD  30

 HEAD WILL BE SAVED ON UNIT   37 AT END OF TIME STEP    1, STRESS PERIOD   30

 DRAWDOWN WILL BE SAVED ON UNIT   38 AT END OF TIME STEP    1, STRESS PERIOD   30
1
  VOLUMETRIC BUDGET FOR ENTIRE MODEL AT END OF TIME STEP    1, STRESS PERIOD  30
  ------------------------------------------------------------------------------

     CUMULATIVE VOLUMES      L**3       RATES FOR THIS TIME STEP      L**3/T
     ------------------                 ------------------------

           IN:                                      IN:
           ---                                      ---
             STORAGE =        7420.7798               STORAGE =       2.1588E-03
       CONSTANT HEAD =        9354.9082         CONSTANT HEAD =       2.2085E-03
            RECHARGE =         371.8472              RECHARGE =       9.7813E-05

            TOTAL IN =       17147.5352              TOTAL IN =       4.4651E-03

          OUT:                                     OUT:
          ----                                     ----
             STORAGE =        2624.5713               STORAGE =           0.0000
       CONSTANT HEAD =       14523.3506         CONSTANT HEAD =       4.4652E-03
            RECHARGE =           0.0000              RECHARGE =           0.0000

           TOTAL OUT =       17147.9219             TOTAL OUT =       4.4652E-03

            IN - OUT =          -0.3867              IN - OUT =      -6.7987E-08

 PERCENT DISCREPANCY =          -0.00     PERCENT DISCREPANCY =          -0.00






         TIME SUMMARY AT END OF TIME STEP    1 IN STRESS PERIOD   30
                    SECONDS     MINUTES      HOURS       DAYS        YEARS
                    -----------------------------------------------------------
   TIME STEP LENGTH  86400.      1440.0      24.000      1.0000     2.73785E-03
 STRESS PERIOD TIME  86400.      1440.0      24.000      1.0000     2.73785E-03
         TOTAL TIME 3.80160E+06  63360.      1056.0      44.000     0.12047    
1
1
                            STRESS PERIOD NO.   31, LENGTH =   86400.00    
                            -----------------------------------------------

                              NUMBER OF TIME STEPS =     1

                               MULTIPLIER FOR DELT =     1.000

                            INITIAL TIME STEP SIZE =   86400.00    

 REUSING RECH FROM LAST STRESS PERIOD

 CHD NO.   LAYER   ROW   COL    START HEAD        END HEAD         IFACE           
 ----------------------------------------------------------------------------------
      1      4      1      1       109.6           109.5           0.000    
      2      5      1      1       109.6           109.5           0.000    
      3      4      1      2       109.6           109.5           0.000    
      4      5      1      2       109.6           109.5           0.000    
      5      4      1      3       109.6           109.5           0.000    
      6      5      1      3       109.6           109.5           0.000    
      7      4      1      4       109.6           109.5           0.000    
      8      5      1      4       109.6           109.5           0.000    
      9      4      1      5       109.6           109.5           0.000    
     10      5      1      5       109.6           109.5           0.000    
     11      4      1      6       109.6           109.5           0.000    
     12      5      1      6       109.6           109.5           0.000    
     13      4      1      7       109.6           109.5           0.000    
     14      5      1      7       109.6           109.5           0.000    
     15      4      1      8       109.6           109.5           0.000    
     16      5      1      8       109.6           109.5           0.000    
     17      4      1      9       109.6           109.5           0.000    
     18      5      1      9       109.6           109.5           0.000    
     19      4      1     10       109.6           109.5           0.000    
     20      5      1     10       109.6           109.5           0.000    
     21      4      1     11       109.6           109.5           0.000    
     22      5      1     11       109.6           109.5           0.000    
     23      4      1     12       109.6           109.5           0.000    
     24      5      1     12       109.6           109.5           0.000    
     25      4      1     13       109.6           109.5           0.000    
     26      5      1     13       109.6           109.5           0.000    
     27      4      1     14       109.6           109.5           0.000    
     28      5      1     14       109.6           109.5           0.000    
     29      4      1     15       109.6           109.5           0.000    
     30      5      1     15       109.6           109.5           0.000    
     31      4      1     16       109.6           109.5           0.000    
     32      5      1     16       109.6           109.5           0.000    
     33      4      1     17       109.6           109.5           0.000    
     34      5      1     17       109.6           109.5           0.000    
     35      4     17     17       109.3           109.2           0.000    
     36      5     17     17       109.3           109.2           0.000    
     37      4     18     17       109.3           109.2           0.000    
     38      5     18     17       109.3           109.2           0.000    
     39      4     18     16       109.3           109.2           0.000    
     40      5     18     16       109.3           109.2           0.000    
     41      4     19     16       109.3           109.2           0.000    
     42      5     19     16       109.3           109.2           0.000    
     43      4     19     15       109.3           109.2           0.000    
     44      5     19     15       109.3           109.2           0.000    
     45      4     20     15       109.3           109.2           0.000    
     46      5     20     15       109.3           109.2           0.000    
     47      4     20     14       109.3           109.2           0.000    
     48      5     20     14       109.3           109.2           0.000    
     49      4     20     13       109.3           109.2           0.000    
     50      5     20     13       109.3           109.2           0.000    
     51      4     20     12       109.3           109.2           0.000    
     52      5     20     12       109.3           109.2           0.000    
     53      4     20     11       109.3           109.2           0.000    
     54      5     20     11       109.3           109.2           0.000    
     55      4     21     11       109.3           109.2           0.000    
     56      5     21     11       109.3           109.2           0.000    
     57      4     21     10       109.3           109.2           0.000    
     58      5     21     10       109.3           109.2           0.000    
     59      4     21      9       109.3           109.2           0.000    
     60      5     21      9       109.3           109.2           0.000    
     61      4     21      8       109.3           109.2           0.000    
     62      5     21      8       109.3           109.2           0.000    
     63      4     21      7       109.2           109.2           0.000    
     64      5     21      7       109.2           109.2           0.000    
     65      4     21      6       109.2           109.2           0.000    
     66      5     21      6       109.2           109.2           0.000    
     67      4     21      5       109.2           109.2           0.000    
     68      5     21      5       109.2           109.2           0.000    
     69      4     22      5       109.2           109.2           0.000    
     70      5     22      5       109.2           109.2           0.000    
     71      4     22      4       109.2           109.1           0.000    
     72      5     22      4       109.2           109.1           0.000    
     73      4     22      3       109.2           109.1           0.000    
     74      5     22      3       109.2           109.1           0.000    
     75      4     22      2       109.2           109.1           0.000    
     76      5     22      2       109.2           109.1           0.000    
     77      4     22      1       109.2           109.1           0.000    
     78      5     22      1       109.2           109.1           0.000    


     78 TIME-VARIANT SPECIFIED-HEAD CELLS

 SOLVING FOR HEAD 


     4 CALLS TO PCG ROUTINE FOR TIME STEP   1 IN STRESS PERIOD   31
    63 TOTAL ITERATIONS

 MAXIMUM HEAD CHANGE FOR EACH ITERATION (1 INDICATES THE FIRST INNER ITERATION):

    HEAD CHANGE    HEAD CHANGE    HEAD CHANGE    HEAD CHANGE    HEAD CHANGE 
   LAYER,ROW,COL  LAYER,ROW,COL  LAYER,ROW,COL  LAYER,ROW,COL  LAYER,ROW,COL
 ---------------------------------------------------------------------------
  1 -0.2744      0  0.1411      0  0.9113E-01  0 -0.1731      0  0.1093    
   (  5, 21,  2)  (  5, 20,  1)  (  5, 20,  1)  (  5, 19,  1)  (  5, 17,  1)
  0 -0.6784E-01  0 -0.4571E-01  0  0.3301E-01  0 -0.2805E-01  0 -0.1326E-01
   (  5, 15,  1)  (  5, 17,  1)  (  5, 12,  4)  (  5, 19,  1)  (  5, 17,  3)
  0  0.1298E-01  0 -0.8317E-02  0  0.6067E-02  0 -0.3214E-02  0 -0.2369E-02
   (  5, 18,  1)  (  5, 15,  3)  (  5, 14,  4)  (  5, 14,  5)  (  5, 13,  1)
  0  0.2672E-02  0  0.1552E-02  0 -0.1091E-02  0  0.6160E-03  0  0.5554E-03
   (  5, 14,  2)  (  5, 16,  3)  (  5, 18,  2)  (  5, 17,  2)  (  5, 15,  1)
  0 -0.4318E-03  0 -0.3682E-03  0 -0.2108E-03  0 -0.1351E-03  0 -0.1010E-03
   (  5, 16,  2)  (  5,  6,  1)  (  5, 17,  2)  (  5,  7,  1)  (  5, 12,  1)
  0  0.7564E-04  0 -0.6111E-04  0  0.4974E-04  0 -0.4177E-04  0  0.2487E-04
   (  5, 13,  2)  (  5,  8,  1)  (  5, 16,  1)  (  5, 17,  1)  (  5, 18,  2)
  1  0.1832E-02  0  0.1094E-02  0  0.1874E-02  0 -0.1050E-02  0  0.9614E-03
   (  5, 14,  2)  (  3, 14,  3)  (  5, 16,  1)  (  5, 18,  1)  (  5, 18,  1)
  0  0.4408E-03  0 -0.2955E-03  0  0.1977E-03  0 -0.1676E-03  0 -0.1273E-03
   (  5, 18,  5)  (  5, 17,  3)  (  5, 11,  3)  (  5, 12,  3)  (  5, 16,  2)
  0 -0.1135E-03  0  0.6867E-04  0  0.4089E-04  0 -0.1953E-04  0  0.1594E-04
   (  5, 19,  1)  (  5, 20,  1)  (  5, 12,  5)  (  5, 12,  6)  (  5, 11,  6)
  0  0.9782E-05  0  0.8344E-05  0  0.8208E-05  0 -0.5173E-05  0  0.3326E-05
   (  5,  8,  1)  (  5, 10,  4)  (  5, 17,  1)  (  5, 15,  1)  (  5,  8,  1)
  0  0.1911E-05  0 -0.1223E-05  0 -0.1058E-05  0  0.7732E-06  1 -0.3670E-05
   (  5,  6,  1)  (  5,  6,  1)  (  5, 18,  1)  (  5, 18,  2)  (  5, 12,  2)
  0 -0.3151E-05  0 -0.3622E-05  0  0.2371E-05  0 -0.2520E-05  0  0.1475E-05
   (  5,  6,  1)  (  5, 13,  1)  (  5, 16,  1)  (  5, 17,  1)  (  5, 20,  1)
  0 -0.1200E-05  0  0.7586E-06  1 -0.3389E-06
   (  5, 19,  1)  (  5, 18,  1)  (  5, 18,  1)

 MAXIMUM RESIDUAL FOR EACH ITERATION (1 INDICATES THE FIRST INNER ITERATION):

    RESIDUAL       RESIDUAL       RESIDUAL       RESIDUAL       RESIDUAL    
   LAYER,ROW,COL  LAYER,ROW,COL  LAYER,ROW,COL  LAYER,ROW,COL  LAYER,ROW,COL
 ---------------------------------------------------------------------------
  1  0.4943E-02  0  0.4194E-02  0  0.3536E-02  0  0.2521E-02  0  0.1827E-02
   (  3, 17, 17)  (  3, 17, 17)  (  3, 17, 17)  (  3, 17, 17)  (  3, 17, 17)
  0  0.1224E-02  0  0.7848E-03  0  0.4765E-03  0  0.2668E-03  0  0.2078E-03
   (  3, 17, 17)  (  3, 17, 17)  (  3, 20, 11)  (  3, 20, 11)  (  4, 16, 17)
  0  0.1563E-03  0  0.1243E-03  0  0.9590E-04  0  0.7041E-04  0  0.6056E-04
   (  4, 16, 17)  (  4, 16, 17)  (  4, 16, 17)  (  4, 16, 17)  (  4, 16, 17)
  0  0.4783E-04  0  0.3361E-04  0  0.2207E-04  0 -0.1467E-04  0 -0.1064E-04
   (  4, 16, 17)  (  4, 16, 17)  (  4, 16, 17)  (  3, 21,  6)  (  3, 21,  6)
  0 -0.8846E-05  0 -0.5689E-05  0 -0.3285E-05  0 -0.1691E-05  0 -0.8781E-06
   (  3, 21,  6)  (  3, 21,  6)  (  3, 21,  6)  (  3, 21,  6)  (  3, 21,  5)
  0 -0.7315E-06  0  0.5575E-06  0  0.4653E-06  0  0.3426E-06  0  0.2701E-06
   (  3, 21,  5)  (  5, 15, 17)  (  5, 15, 17)  (  3, 17, 17)  (  3, 17, 17)
  1 -0.9511E-05  0 -0.8021E-05  0 -0.5533E-05  0 -0.3968E-05  0 -0.3847E-05
   (  3, 14,  1)  (  3, 14,  1)  (  3, 14,  1)  (  3, 14,  1)  (  4, 21,  1)
  0 -0.3136E-05  0 -0.2589E-05  0 -0.1800E-05  0  0.1219E-05  0  0.1057E-05
   (  4, 21,  1)  (  4, 21,  1)  (  4, 21,  1)  (  4, 21,  2)  (  4, 21,  2)
  0  0.9758E-06  0  0.6530E-06  0  0.4100E-06  0  0.2572E-06  0 -0.1435E-06
   (  4, 21,  2)  (  4, 21,  2)  (  4, 21,  2)  (  4, 21,  2)  (  4, 20,  2)
  0 -0.1198E-06  0 -0.8613E-07  0 -0.6652E-07  0 -0.4229E-07  0 -0.3078E-07
   (  4, 20,  2)  (  4, 20,  2)  (  4, 20,  2)  (  4, 21,  3)  (  4, 21,  2)
  0  0.2235E-07  0  0.1445E-07  0  0.1129E-07  0  0.6696E-08  1  0.3433E-07
   (  4, 20,  3)  (  4, 20,  3)  (  4, 20,  3)  (  4, 20,  3)  (  3, 14,  5)
  0  0.2323E-07  0  0.1506E-07  0  0.1128E-07  0  0.9542E-08  0 -0.6984E-08
   (  3, 14,  5)  (  4, 18,  3)  (  4, 21,  2)  (  4, 21,  2)  (  4, 13,  3)
  0  0.4943E-08  0  0.4002E-08  1  0.3544E-08
   (  4, 21,  2)  (  4, 21,  2)  (  4, 21,  2)



 OUTPUT CONTROL FOR STRESS PERIOD   31   TIME STEP    1
    SAVE HEAD FOR ALL LAYERS
    SAVE DRAWDOWN FOR ALL LAYERS
    SAVE BUDGET
    PRINT BUDGET
 UBDSV1 SAVING "         STORAGE" ON UNIT   9 AT TIME STEP  1, STRESS PERIOD  31
 UBDSV2 SAVING "   CONSTANT HEAD" ON UNIT   9 AT TIME STEP  1, STRESS PERIOD  31
 UBDSV1 SAVING "FLOW RIGHT FACE " ON UNIT   9 AT TIME STEP  1, STRESS PERIOD  31
 UBDSV1 SAVING "FLOW FRONT FACE " ON UNIT   9 AT TIME STEP  1, STRESS PERIOD  31
 UBDSV1 SAVING "FLOW LOWER FACE " ON UNIT   9 AT TIME STEP  1, STRESS PERIOD  31
 UBDSV3 SAVING "        RECHARGE" ON UNIT   9 AT TIME STEP  1, STRESS PERIOD  31

 HEAD WILL BE SAVED ON UNIT   37 AT END OF TIME STEP    1, STRESS PERIOD   31

 DRAWDOWN WILL BE SAVED ON UNIT   38 AT END OF TIME STEP    1, STRESS PERIOD   31
1
  VOLUMETRIC BUDGET FOR ENTIRE MODEL AT END OF TIME STEP    1, STRESS PERIOD  31
  ------------------------------------------------------------------------------

     CUMULATIVE VOLUMES      L**3       RATES FOR THIS TIME STEP      L**3/T
     ------------------                 ------------------------

           IN:                                      IN:
           ---                                      ---
             STORAGE =        7684.5762               STORAGE =       3.0532E-03
       CONSTANT HEAD =        9556.5469         CONSTANT HEAD =       2.3338E-03
            RECHARGE =         380.2982              RECHARGE =       9.7813E-05

            TOTAL IN =       17621.4219              TOTAL IN =       5.4848E-03

          OUT:                                     OUT:
          ----                                     ----
             STORAGE =        2624.5713               STORAGE =           0.0000
       CONSTANT HEAD =       14997.2461         CONSTANT HEAD =       5.4849E-03
            RECHARGE =           0.0000              RECHARGE =           0.0000

           TOTAL OUT =       17621.8164             TOTAL OUT =       5.4849E-03

            IN - OUT =          -0.3945              IN - OUT =      -1.0896E-07

 PERCENT DISCREPANCY =          -0.00     PERCENT DISCREPANCY =          -0.00






         TIME SUMMARY AT END OF TIME STEP    1 IN STRESS PERIOD   31
                    SECONDS     MINUTES      HOURS       DAYS        YEARS
                    -----------------------------------------------------------
   TIME STEP LENGTH  86400.      1440.0      24.000      1.0000     2.73785E-03
 STRESS PERIOD TIME  86400.      1440.0      24.000      1.0000     2.73785E-03
         TOTAL TIME 3.88800E+06  64800.      1080.0      45.000     0.12320    
1
1
                            STRESS PERIOD NO.   32, LENGTH =   86400.00    
                            -----------------------------------------------

                              NUMBER OF TIME STEPS =     1

                               MULTIPLIER FOR DELT =     1.000

                            INITIAL TIME STEP SIZE =   86400.00    

 REUSING RECH FROM LAST STRESS PERIOD

 CHD NO.   LAYER   ROW   COL    START HEAD        END HEAD         IFACE           
 ----------------------------------------------------------------------------------
      1      4      1      1       109.5           109.5           0.000    
      2      5      1      1       109.5           109.5           0.000    
      3      4      1      2       109.5           109.5           0.000    
      4      5      1      2       109.5           109.5           0.000    
      5      4      1      3       109.5           109.5           0.000    
      6      5      1      3       109.5           109.5           0.000    
      7      4      1      4       109.5           109.5           0.000    
      8      5      1      4       109.5           109.5           0.000    
      9      4      1      5       109.5           109.5           0.000    
     10      5      1      5       109.5           109.5           0.000    
     11      4      1      6       109.5           109.5           0.000    
     12      5      1      6       109.5           109.5           0.000    
     13      4      1      7       109.5           109.5           0.000    
     14      5      1      7       109.5           109.5           0.000    
     15      4      1      8       109.5           109.5           0.000    
     16      5      1      8       109.5           109.5           0.000    
     17      4      1      9       109.5           109.5           0.000    
     18      5      1      9       109.5           109.5           0.000    
     19      4      1     10       109.5           109.5           0.000    
     20      5      1     10       109.5           109.5           0.000    
     21      4      1     11       109.5           109.5           0.000    
     22      5      1     11       109.5           109.5           0.000    
     23      4      1     12       109.5           109.5           0.000    
     24      5      1     12       109.5           109.5           0.000    
     25      4      1     13       109.5           109.5           0.000    
     26      5      1     13       109.5           109.5           0.000    
     27      4      1     14       109.5           109.5           0.000    
     28      5      1     14       109.5           109.5           0.000    
     29      4      1     15       109.5           109.5           0.000    
     30      5      1     15       109.5           109.5           0.000    
     31      4      1     16       109.5           109.5           0.000    
     32      5      1     16       109.5           109.5           0.000    
     33      4      1     17       109.5           109.5           0.000    
     34      5      1     17       109.5           109.5           0.000    
     35      4     17     17       109.2           109.2           0.000    
     36      5     17     17       109.2           109.2           0.000    
     37      4     18     17       109.2           109.2           0.000    
     38      5     18     17       109.2           109.2           0.000    
     39      4     18     16       109.2           109.2           0.000    
     40      5     18     16       109.2           109.2           0.000    
     41      4     19     16       109.2           109.2           0.000    
     42      5     19     16       109.2           109.2           0.000    
     43      4     19     15       109.2           109.2           0.000    
     44      5     19     15       109.2           109.2           0.000    
     45      4     20     15       109.2           109.2           0.000    
     46      5     20     15       109.2           109.2           0.000    
     47      4     20     14       109.2           109.2           0.000    
     48      5     20     14       109.2           109.2           0.000    
     49      4     20     13       109.2           109.2           0.000    
     50      5     20     13       109.2           109.2           0.000    
     51      4     20     12       109.2           109.2           0.000    
     52      5     20     12       109.2           109.2           0.000    
     53      4     20     11       109.2           109.2           0.000    
     54      5     20     11       109.2           109.2           0.000    
     55      4     21     11       109.2           109.2           0.000    
     56      5     21     11       109.2           109.2           0.000    
     57      4     21     10       109.2           109.1           0.000    
     58      5     21     10       109.2           109.1           0.000    
     59      4     21      9       109.2           109.1           0.000    
     60      5     21      9       109.2           109.1           0.000    
     61      4     21      8       109.2           109.1           0.000    
     62      5     21      8       109.2           109.1           0.000    
     63      4     21      7       109.2           109.1           0.000    
     64      5     21      7       109.2           109.1           0.000    
     65      4     21      6       109.2           109.1           0.000    
     66      5     21      6       109.2           109.1           0.000    
     67      4     21      5       109.2           109.1           0.000    
     68      5     21      5       109.2           109.1           0.000    
     69      4     22      5       109.2           109.1           0.000    
     70      5     22      5       109.2           109.1           0.000    
     71      4     22      4       109.1           109.1           0.000    
     72      5     22      4       109.1           109.1           0.000    
     73      4     22      3       109.1           109.1           0.000    
     74      5     22      3       109.1           109.1           0.000    
     75      4     22      2       109.1           109.1           0.000    
     76      5     22      2       109.1           109.1           0.000    
     77      4     22      1       109.1           109.1           0.000    
     78      5     22      1       109.1           109.1           0.000    


     78 TIME-VARIANT SPECIFIED-HEAD CELLS

 SOLVING FOR HEAD 


     3 CALLS TO PCG ROUTINE FOR TIME STEP   1 IN STRESS PERIOD   32
    48 TOTAL ITERATIONS

 MAXIMUM HEAD CHANGE FOR EACH ITERATION (1 INDICATES THE FIRST INNER ITERATION):

    HEAD CHANGE    HEAD CHANGE    HEAD CHANGE    HEAD CHANGE    HEAD CHANGE 
   LAYER,ROW,COL  LAYER,ROW,COL  LAYER,ROW,COL  LAYER,ROW,COL  LAYER,ROW,COL
 ---------------------------------------------------------------------------
  1 -0.8053E-01  0  0.6471E-01  0 -0.4768E-01  0  0.3177E-01  0 -0.1957E-01
   (  5, 21,  2)  (  5, 20,  1)  (  5, 18,  1)  (  5, 16,  1)  (  5, 14,  1)
  0  0.1262E-01  0 -0.1009E-01  0 -0.4762E-02  0 -0.3083E-02  0  0.2117E-02
   (  5, 19,  1)  (  5, 18,  1)  (  5, 16,  3)  (  5, 11,  3)  (  5, 18,  1)
  0 -0.1471E-02  0 -0.1263E-02  0  0.1011E-02  0 -0.6255E-03  0 -0.2814E-03
   (  5,  9,  1)  (  5, 15,  3)  (  5, 15,  3)  (  5, 15,  5)  (  5, 18,  2)
  0 -0.1889E-03  0 -0.1317E-03  0  0.1009E-03  0 -0.9986E-04  0  0.6267E-04
   (  5, 15,  2)  (  5, 16,  3)  (  5, 18,  2)  (  5, 17,  2)  (  5, 16,  1)
  0 -0.4689E-04  0  0.1922E-04  0  0.1531E-04  0  0.1313E-04  0  0.1017E-04
   (  5, 15,  1)  (  5, 12,  6)  (  5, 15,  4)  (  5, 18,  2)  (  5, 12,  1)
  0  0.5224E-05  0 -0.3389E-05  0 -0.2796E-05  0  0.1320E-05  0  0.1316E-05
   (  5, 16,  1)  (  5, 16,  4)  (  5,  6,  2)  (  5,  6,  2)  (  5, 19,  3)
  1  0.2444E-03  0  0.2745E-03  0  0.2181E-03  0 -0.1610E-03  0  0.8738E-04
   (  3, 10,  2)  (  3, 10,  2)  (  5, 12,  1)  (  5, 14,  1)  (  5, 15,  1)
  0 -0.7761E-04  0  0.4537E-04  0 -0.3908E-04  0  0.2039E-04  0 -0.1524E-04
   (  5, 17,  1)  (  5, 18,  1)  (  5, 19,  1)  (  5, 19,  1)  (  5, 20,  1)
  0 -0.7333E-05  0  0.4861E-05  0  0.3222E-05  0  0.3617E-05  0  0.1287E-05
   (  5,  8,  1)  (  5,  8,  1)  (  5, 12,  5)  (  5, 15,  4)  (  5, 12,  7)
  0  0.1357E-05  0  0.6199E-06  1  0.4682E-06
   (  5,  8,  1)  (  5, 17,  5)  (  5, 19,  3)

 MAXIMUM RESIDUAL FOR EACH ITERATION (1 INDICATES THE FIRST INNER ITERATION):

    RESIDUAL       RESIDUAL       RESIDUAL       RESIDUAL       RESIDUAL    
   LAYER,ROW,COL  LAYER,ROW,COL  LAYER,ROW,COL  LAYER,ROW,COL  LAYER,ROW,COL
 ---------------------------------------------------------------------------
  1  0.6014E-03  0  0.4673E-03  0  0.3204E-03  0  0.1994E-03  0 -0.1244E-03
   (  3, 17, 17)  (  3, 17, 17)  (  3, 17, 17)  (  3, 17, 17)  (  5, 16, 17)
  0 -0.8095E-04  0 -0.5593E-04  0 -0.4140E-04  0 -0.3150E-04  0 -0.2153E-04
   (  5, 16, 17)  (  5, 16, 17)  (  5, 16, 17)  (  4, 21,  2)  (  4, 21,  2)
  0 -0.1398E-04  0 -0.8005E-05  0 -0.5716E-05  0 -0.4514E-05  0 -0.3397E-05
   (  4, 21,  2)  (  4, 21,  2)  (  3, 21,  6)  (  3, 21,  6)  (  3, 21,  6)
  0 -0.2448E-05  0 -0.1726E-05  0 -0.1100E-05  0 -0.6661E-06  0 -0.4615E-06
   (  3, 21,  6)  (  3, 21,  6)  (  3, 21,  6)  (  3, 21,  6)  (  3, 21,  6)
  0  0.2953E-06  0  0.2000E-06  0  0.1285E-06  0  0.8798E-07  0  0.6448E-07
   (  5, 15, 17)  (  5, 15, 17)  (  5, 15, 17)  (  5, 16, 17)  (  5, 16, 17)
  0 -0.4312E-07  0 -0.2750E-07  0 -0.1767E-07  0  0.1255E-07  0  0.9329E-08
   (  3, 17, 17)  (  3, 17, 17)  (  3, 17, 17)  (  3, 21,  6)  (  3, 21,  6)
  1 -0.2660E-05  0 -0.1448E-05  0  0.7849E-06  0  0.6735E-06  0  0.5042E-06
   (  3, 10,  2)  (  3, 10,  2)  (  4, 18,  3)  (  4, 18,  3)  (  4, 10,  2)
  0  0.4185E-06  0  0.2934E-06  0  0.1820E-06  0  0.9501E-07  0  0.9396E-07
   (  4, 18,  3)  (  4, 18,  3)  (  4, 18,  3)  (  4, 20,  2)  (  4, 20,  2)
  0  0.6245E-07  0 -0.4892E-07  0 -0.3544E-07  0 -0.1709E-07  0 -0.1352E-07
   (  4, 20,  2)  (  4,  9,  2)  (  4,  9,  2)  (  4, 20,  3)  (  4, 20,  3)
  0 -0.1022E-07  0 -0.7486E-08  1 -0.6125E-08
   (  4, 20,  2)  (  4, 20,  2)  (  4, 20,  2)



 OUTPUT CONTROL FOR STRESS PERIOD   32   TIME STEP    1
    SAVE HEAD FOR ALL LAYERS
    SAVE DRAWDOWN FOR ALL LAYERS
    SAVE BUDGET
    PRINT BUDGET
 UBDSV1 SAVING "         STORAGE" ON UNIT   9 AT TIME STEP  1, STRESS PERIOD  32
 UBDSV2 SAVING "   CONSTANT HEAD" ON UNIT   9 AT TIME STEP  1, STRESS PERIOD  32
 UBDSV1 SAVING "FLOW RIGHT FACE " ON UNIT   9 AT TIME STEP  1, STRESS PERIOD  32
 UBDSV1 SAVING "FLOW FRONT FACE " ON UNIT   9 AT TIME STEP  1, STRESS PERIOD  32
 UBDSV1 SAVING "FLOW LOWER FACE " ON UNIT   9 AT TIME STEP  1, STRESS PERIOD  32
 UBDSV3 SAVING "        RECHARGE" ON UNIT   9 AT TIME STEP  1, STRESS PERIOD  32

 HEAD WILL BE SAVED ON UNIT   37 AT END OF TIME STEP    1, STRESS PERIOD   32

 DRAWDOWN WILL BE SAVED ON UNIT   38 AT END OF TIME STEP    1, STRESS PERIOD   32
1
  VOLUMETRIC BUDGET FOR ENTIRE MODEL AT END OF TIME STEP    1, STRESS PERIOD  32
  ------------------------------------------------------------------------------

     CUMULATIVE VOLUMES      L**3       RATES FOR THIS TIME STEP      L**3/T
     ------------------                 ------------------------

           IN:                                      IN:
           ---                                      ---
             STORAGE =        7846.1172               STORAGE =       1.8697E-03
       CONSTANT HEAD =        9745.8721         CONSTANT HEAD =       2.1913E-03
            RECHARGE =         388.7493              RECHARGE =       9.7813E-05

            TOTAL IN =       17980.7383              TOTAL IN =       4.1588E-03

          OUT:                                     OUT:
          ----                                     ----
             STORAGE =        2624.5713               STORAGE =           0.0000
       CONSTANT HEAD =       15356.5723         CONSTANT HEAD =       4.1589E-03
            RECHARGE =           0.0000              RECHARGE =           0.0000

           TOTAL OUT =       17981.1445             TOTAL OUT =       4.1589E-03

            IN - OUT =          -0.4062              IN - OUT =      -9.6392E-08

 PERCENT DISCREPANCY =          -0.00     PERCENT DISCREPANCY =          -0.00






         TIME SUMMARY AT END OF TIME STEP    1 IN STRESS PERIOD   32
                    SECONDS     MINUTES      HOURS       DAYS        YEARS
                    -----------------------------------------------------------
   TIME STEP LENGTH  86400.      1440.0      24.000      1.0000     2.73785E-03
 STRESS PERIOD TIME  86400.      1440.0      24.000      1.0000     2.73785E-03
         TOTAL TIME 3.97440E+06  66240.      1104.0      46.000     0.12594    
1
1
                            STRESS PERIOD NO.   33, LENGTH =   259200.0    
                            -----------------------------------------------

                              NUMBER OF TIME STEPS =     3

                               MULTIPLIER FOR DELT =     1.000

                            INITIAL TIME STEP SIZE =   86400.00    

 REUSING RECH FROM LAST STRESS PERIOD

 CHD NO.   LAYER   ROW   COL    START HEAD        END HEAD         IFACE           
 ----------------------------------------------------------------------------------
      1      4      1      1       109.5           109.4           0.000    
      2      5      1      1       109.5           109.4           0.000    
      3      4      1      2       109.5           109.4           0.000    
      4      5      1      2       109.5           109.4           0.000    
      5      4      1      3       109.5           109.4           0.000    
      6      5      1      3       109.5           109.4           0.000    
      7      4      1      4       109.5           109.4           0.000    
      8      5      1      4       109.5           109.4           0.000    
      9      4      1      5       109.5           109.4           0.000    
     10      5      1      5       109.5           109.4           0.000    
     11      4      1      6       109.5           109.4           0.000    
     12      5      1      6       109.5           109.4           0.000    
     13      4      1      7       109.5           109.4           0.000    
     14      5      1      7       109.5           109.4           0.000    
     15      4      1      8       109.5           109.4           0.000    
     16      5      1      8       109.5           109.4           0.000    
     17      4      1      9       109.5           109.4           0.000    
     18      5      1      9       109.5           109.4           0.000    
     19      4      1     10       109.5           109.4           0.000    
     20      5      1     10       109.5           109.4           0.000    
     21      4      1     11       109.5           109.4           0.000    
     22      5      1     11       109.5           109.4           0.000    
     23      4      1     12       109.5           109.4           0.000    
     24      5      1     12       109.5           109.4           0.000    
     25      4      1     13       109.5           109.4           0.000    
     26      5      1     13       109.5           109.4           0.000    
     27      4      1     14       109.5           109.4           0.000    
     28      5      1     14       109.5           109.4           0.000    
     29      4      1     15       109.5           109.4           0.000    
     30      5      1     15       109.5           109.4           0.000    
     31      4      1     16       109.5           109.4           0.000    
     32      5      1     16       109.5           109.4           0.000    
     33      4      1     17       109.5           109.4           0.000    
     34      5      1     17       109.5           109.4           0.000    
     35      4     17     17       109.2           109.1           0.000    
     36      5     17     17       109.2           109.1           0.000    
     37      4     18     17       109.2           109.1           0.000    
     38      5     18     17       109.2           109.1           0.000    
     39      4     18     16       109.2           109.1           0.000    
     40      5     18     16       109.2           109.1           0.000    
     41      4     19     16       109.2           109.1           0.000    
     42      5     19     16       109.2           109.1           0.000    
     43      4     19     15       109.2           109.1           0.000    
     44      5     19     15       109.2           109.1           0.000    
     45      4     20     15       109.2           109.1           0.000    
     46      5     20     15       109.2           109.1           0.000    
     47      4     20     14       109.2           109.1           0.000    
     48      5     20     14       109.2           109.1           0.000    
     49      4     20     13       109.2           109.1           0.000    
     50      5     20     13       109.2           109.1           0.000    
     51      4     20     12       109.2           109.1           0.000    
     52      5     20     12       109.2           109.1           0.000    
     53      4     20     11       109.2           109.1           0.000    
     54      5     20     11       109.2           109.1           0.000    
     55      4     21     11       109.2           109.1           0.000    
     56      5     21     11       109.2           109.1           0.000    
     57      4     21     10       109.1           109.1           0.000    
     58      5     21     10       109.1           109.1           0.000    
     59      4     21      9       109.1           109.1           0.000    
     60      5     21      9       109.1           109.1           0.000    
     61      4     21      8       109.1           109.1           0.000    
     62      5     21      8       109.1           109.1           0.000    
     63      4     21      7       109.1           109.1           0.000    
     64      5     21      7       109.1           109.1           0.000    
     65      4     21      6       109.1           109.1           0.000    
     66      5     21      6       109.1           109.1           0.000    
     67      4     21      5       109.1           109.1           0.000    
     68      5     21      5       109.1           109.1           0.000    
     69      4     22      5       109.1           109.1           0.000    
     70      5     22      5       109.1           109.1           0.000    
     71      4     22      4       109.1           109.1           0.000    
     72      5     22      4       109.1           109.1           0.000    
     73      4     22      3       109.1           109.1           0.000    
     74      5     22      3       109.1           109.1           0.000    
     75      4     22      2       109.1           109.1           0.000    
     76      5     22      2       109.1           109.1           0.000    
     77      4     22      1       109.1           109.1           0.000    
     78      5     22      1       109.1           109.1           0.000    


     78 TIME-VARIANT SPECIFIED-HEAD CELLS

 SOLVING FOR HEAD 


     3 CALLS TO PCG ROUTINE FOR TIME STEP   1 IN STRESS PERIOD   33
    46 TOTAL ITERATIONS

 MAXIMUM HEAD CHANGE FOR EACH ITERATION (1 INDICATES THE FIRST INNER ITERATION):

    HEAD CHANGE    HEAD CHANGE    HEAD CHANGE    HEAD CHANGE    HEAD CHANGE 
   LAYER,ROW,COL  LAYER,ROW,COL  LAYER,ROW,COL  LAYER,ROW,COL  LAYER,ROW,COL
 ---------------------------------------------------------------------------
  1 -0.7316E-01  0  0.5911E-01  0 -0.4579E-01  0  0.3156E-01  0 -0.2176E-01
   (  5, 21,  2)  (  5, 20,  1)  (  5, 18,  1)  (  5, 17,  1)  (  5, 15,  1)
  0  0.1131E-01  0 -0.9455E-02  0 -0.4822E-02  0 -0.2736E-02  0  0.1635E-02
   (  5, 13,  1)  (  5, 18,  1)  (  5, 19,  1)  (  5, 11,  2)  (  5, 16,  3)
  0  0.1461E-02  0 -0.1041E-02  0  0.8939E-03  0 -0.4867E-03  0  0.2773E-03
   (  5, 19,  1)  (  5, 16,  3)  (  5, 15,  3)  (  5, 15,  4)  (  5, 14,  5)
  0 -0.1791E-03  0 -0.1163E-03  0  0.7411E-04  0 -0.6598E-04  0 -0.3392E-04
   (  5, 13,  5)  (  5, 16,  3)  (  5, 18,  2)  (  5, 17,  2)  (  5, 13,  6)
  0 -0.3325E-04  0  0.3022E-04  0 -0.1539E-04  0  0.1151E-04  0 -0.8660E-05
   (  5, 18,  2)  (  5, 18,  1)  (  5, 17,  1)  (  5, 15,  1)  (  5, 14,  1)
  0  0.5528E-05  0 -0.2475E-05  0 -0.2265E-05  0 -0.1394E-05  0  0.8713E-06
   (  5,  7,  1)  (  5, 10,  6)  (  5,  8,  1)  (  5,  6,  1)  (  5,  6,  1)
  1  0.1015E-03  0  0.5765E-04  0  0.7876E-04  0 -0.5174E-04  0  0.3413E-04
   (  5, 19,  3)  (  2,  2,  9)  (  5, 15,  1)  (  5, 16,  1)  (  5, 19,  2)
  0 -0.2773E-04  0  0.1424E-04  0 -0.8681E-05  0 -0.7058E-05  0 -0.3556E-05
   (  5, 18,  1)  (  5, 20,  1)  (  5, 19,  1)  (  5, 16,  1)  (  5, 16,  3)
  0  0.2100E-05  0 -0.1986E-05  0 -0.1721E-05  0  0.1008E-05  0  0.7183E-06
   (  5, 18,  4)  (  5, 17,  4)  (  5, 20,  1)  (  5, 16,  4)  (  5, 15,  1)
  1  0.3629E-06
   (  5, 18,  1)

 MAXIMUM RESIDUAL FOR EACH ITERATION (1 INDICATES THE FIRST INNER ITERATION):

    RESIDUAL       RESIDUAL       RESIDUAL       RESIDUAL       RESIDUAL    
   LAYER,ROW,COL  LAYER,ROW,COL  LAYER,ROW,COL  LAYER,ROW,COL  LAYER,ROW,COL
 ---------------------------------------------------------------------------
  1  0.9612E-03  0  0.7454E-03  0  0.5206E-03  0  0.3387E-03  0  0.1992E-03
   (  3, 17, 17)  (  3, 17, 17)  (  3, 17, 17)  (  3, 17, 17)  (  3, 17, 17)
  0  0.1071E-03  0  0.5482E-04  0 -0.4983E-04  0 -0.4063E-04  0 -0.2873E-04
   (  3, 20, 11)  (  3, 20, 11)  (  4, 21,  2)  (  4, 21,  2)  (  4, 21,  2)
  0 -0.1902E-04  0  0.1270E-04  0  0.8605E-05  0 -0.6334E-05  0 -0.4632E-05
   (  4, 21,  2)  (  4, 16, 17)  (  4, 16, 17)  (  3, 21,  6)  (  3, 21,  6)
  0 -0.3224E-05  0 -0.2185E-05  0 -0.1342E-05  0 -0.7548E-06  0 -0.3535E-06
   (  3, 21,  6)  (  3, 21,  6)  (  3, 21,  6)  (  3, 21,  6)  (  3, 21,  6)
  0  0.2160E-06  0  0.1736E-06  0  0.1238E-06  0  0.9564E-07  0  0.6587E-07
   (  5, 15, 17)  (  5, 15, 17)  (  5, 15, 17)  (  5, 15, 17)  (  5, 15, 17)
  0  0.4527E-07  0  0.2910E-07  0  0.2202E-07  0  0.1666E-07  0  0.1211E-07
   (  5, 16, 17)  (  5, 16, 17)  (  3, 21,  6)  (  3, 21,  6)  (  3, 21,  6)
  1 -0.1099E-05  0  0.5253E-06  0  0.4808E-06  0  0.3636E-06  0  0.2269E-06
   (  3, 19,  3)  (  4, 19,  3)  (  4, 19,  3)  (  4, 19,  3)  (  4, 19,  3)
  0  0.1873E-06  0  0.1204E-06  0  0.8121E-07  0  0.6251E-07  0  0.4309E-07
   (  4, 19,  3)  (  4, 19,  3)  (  3, 19,  3)  (  3, 19,  3)  (  3, 19,  3)
  0  0.2865E-07  0  0.2106E-07  0  0.1714E-07  0  0.1029E-07  0  0.5717E-08
   (  3, 19,  3)  (  4, 21,  2)  (  4, 21,  2)  (  4, 21,  2)  (  4, 18,  4)
  1  0.5006E-08
   (  4, 18,  4)



 OUTPUT CONTROL FOR STRESS PERIOD   33   TIME STEP    1
    SAVE HEAD FOR ALL LAYERS
    SAVE DRAWDOWN FOR ALL LAYERS
    SAVE BUDGET
    PRINT BUDGET
 UBDSV1 SAVING "         STORAGE" ON UNIT   9 AT TIME STEP  1, STRESS PERIOD  33
 UBDSV2 SAVING "   CONSTANT HEAD" ON UNIT   9 AT TIME STEP  1, STRESS PERIOD  33
 UBDSV1 SAVING "FLOW RIGHT FACE " ON UNIT   9 AT TIME STEP  1, STRESS PERIOD  33
 UBDSV1 SAVING "FLOW FRONT FACE " ON UNIT   9 AT TIME STEP  1, STRESS PERIOD  33
 UBDSV1 SAVING "FLOW LOWER FACE " ON UNIT   9 AT TIME STEP  1, STRESS PERIOD  33
 UBDSV3 SAVING "        RECHARGE" ON UNIT   9 AT TIME STEP  1, STRESS PERIOD  33

 HEAD WILL BE SAVED ON UNIT   37 AT END OF TIME STEP    1, STRESS PERIOD   33

 DRAWDOWN WILL BE SAVED ON UNIT   38 AT END OF TIME STEP    1, STRESS PERIOD   33
1
  VOLUMETRIC BUDGET FOR ENTIRE MODEL AT END OF TIME STEP    1, STRESS PERIOD  33
  ------------------------------------------------------------------------------

     CUMULATIVE VOLUMES      L**3       RATES FOR THIS TIME STEP      L**3/T
     ------------------                 ------------------------

           IN:                                      IN:
           ---                                      ---
             STORAGE =        7958.4141               STORAGE =       1.2997E-03
       CONSTANT HEAD =        9956.6982         CONSTANT HEAD =       2.4401E-03
            RECHARGE =         397.2004              RECHARGE =       9.7813E-05

            TOTAL IN =       18312.3145              TOTAL IN =       3.8377E-03

          OUT:                                     OUT:
          ----                                     ----
             STORAGE =        2624.5713               STORAGE =           0.0000
       CONSTANT HEAD =       15688.1543         CONSTANT HEAD =       3.8378E-03
            RECHARGE =           0.0000              RECHARGE =           0.0000

           TOTAL OUT =       18312.7266             TOTAL OUT =       3.8378E-03

            IN - OUT =          -0.4121              IN - OUT =      -9.0571E-08

 PERCENT DISCREPANCY =          -0.00     PERCENT DISCREPANCY =          -0.00






         TIME SUMMARY AT END OF TIME STEP    1 IN STRESS PERIOD   33
                    SECONDS     MINUTES      HOURS       DAYS        YEARS
                    -----------------------------------------------------------
   TIME STEP LENGTH  86400.      1440.0      24.000      1.0000     2.73785E-03
 STRESS PERIOD TIME  86400.      1440.0      24.000      1.0000     2.73785E-03
         TOTAL TIME 4.06080E+06  67680.      1128.0      47.000     0.12868    
1

 SOLVING FOR HEAD 
     3 CALLS TO PCG ROUTINE FOR TIME STEP   2 IN STRESS PERIOD   33
    44 TOTAL ITERATIONS

 MAXIMUM HEAD CHANGE FOR EACH ITERATION (1 INDICATES THE FIRST INNER ITERATION):

    HEAD CHANGE    HEAD CHANGE    HEAD CHANGE    HEAD CHANGE    HEAD CHANGE 
   LAYER,ROW,COL  LAYER,ROW,COL  LAYER,ROW,COL  LAYER,ROW,COL  LAYER,ROW,COL
 ---------------------------------------------------------------------------
  1 -0.6943E-01  0  0.5658E-01  0 -0.4386E-01  0  0.3092E-01  0 -0.2022E-01
   (  5, 21,  2)  (  5, 20,  1)  (  5, 18,  1)  (  5, 17,  1)  (  5, 15,  1)
  0  0.1096E-01  0 -0.9127E-02  0 -0.4427E-02  0 -0.2655E-02  0 -0.1499E-02
   (  5, 14,  1)  (  5, 18,  1)  (  5, 19,  1)  (  5, 11,  2)  (  5, 14,  4)
  0  0.1399E-02  0 -0.1028E-02  0  0.8031E-03  0 -0.4198E-03  0  0.2484E-03
   (  5, 19,  1)  (  5, 16,  3)  (  5, 15,  3)  (  5, 15,  4)  (  5, 14,  5)
  0 -0.1617E-03  0 -0.1079E-03  0 -0.6854E-04  0 -0.6134E-04  0 -0.2908E-04
   (  5, 13,  5)  (  5, 16,  2)  (  5, 14,  1)  (  5,  6,  1)  (  5, 13,  6)
  0 -0.2762E-04  0  0.2381E-04  0 -0.1369E-04  0  0.1019E-04  0 -0.8375E-05
   (  5, 16,  1)  (  5, 15,  1)  (  5, 17,  1)  (  5, 18,  2)  (  5, 18,  1)
  0  0.4532E-05  0  0.2397E-05  0 -0.1981E-05  0 -0.1002E-05  0  0.7291E-06
   (  5, 19,  1)  (  5, 17,  5)  (  5,  8,  1)  (  5, 17,  4)  (  5, 18,  5)
  1  0.4126E-04  0 -0.6812E-04  0  0.5060E-04  0 -0.4985E-04  0  0.3519E-04
   (  5, 12,  1)  (  5, 14,  1)  (  5, 15,  1)  (  5, 19,  1)  (  5, 18,  1)
  0 -0.1513E-04  0  0.6498E-05  0 -0.5421E-05  0 -0.3274E-05  0 -0.3402E-05
   (  5, 17,  1)  (  5, 10,  6)  (  5, 19,  1)  (  5, 16,  2)  (  5, 20,  1)
  0  0.1829E-05  0 -0.1254E-05  0  0.8797E-06  1 -0.6108E-06
   (  5, 19,  1)  (  5, 18,  1)  (  5, 17,  1)  (  5, 18,  3)

 MAXIMUM RESIDUAL FOR EACH ITERATION (1 INDICATES THE FIRST INNER ITERATION):

    RESIDUAL       RESIDUAL       RESIDUAL       RESIDUAL       RESIDUAL    
   LAYER,ROW,COL  LAYER,ROW,COL  LAYER,ROW,COL  LAYER,ROW,COL  LAYER,ROW,COL
 ---------------------------------------------------------------------------
  1  0.9691E-03  0  0.7448E-03  0  0.5063E-03  0  0.3238E-03  0  0.1934E-03
   (  3, 17, 17)  (  3, 17, 17)  (  3, 17, 17)  (  3, 17, 17)  (  3, 17, 17)
  0  0.1096E-03  0  0.5740E-04  0 -0.4868E-04  0 -0.3927E-04  0 -0.2747E-04
   (  3, 20, 11)  (  3, 20, 11)  (  4, 21,  2)  (  4, 21,  2)  (  4, 21,  2)
  0  0.1889E-04  0  0.1268E-04  0  0.8476E-05  0 -0.6019E-05  0 -0.4419E-05
   (  4, 16, 17)  (  4, 16, 17)  (  4, 16, 17)  (  3, 21,  6)  (  3, 21,  6)
  0 -0.3092E-05  0 -0.2078E-05  0 -0.1252E-05  0 -0.7078E-06  0 -0.3270E-06
   (  3, 21,  6)  (  3, 21,  6)  (  3, 21,  6)  (  3, 21,  6)  (  3, 21,  6)
  0  0.1957E-06  0  0.1624E-06  0  0.1136E-06  0  0.8170E-07  0  0.5981E-07
   (  5, 15, 17)  (  5, 15, 17)  (  5, 15, 17)  (  5, 15, 17)  (  5, 15, 17)
  0  0.3989E-07  0  0.2531E-07  0  0.1890E-07  0  0.1379E-07  0  0.9560E-08
   (  5, 16, 17)  (  5, 16, 17)  (  3, 21,  6)  (  3, 21,  6)  (  3, 21,  6)
  1  0.3862E-06  0  0.2122E-06  0 -0.1891E-06  0 -0.1039E-06  0 -0.8783E-07
   (  3, 21,  1)  (  3, 21,  1)  (  4, 21,  2)  (  4, 21,  2)  (  4, 21,  2)
  0 -0.5644E-07  0 -0.4820E-07  0 -0.3809E-07  0 -0.2875E-07  0 -0.1884E-07
   (  3, 21,  2)  (  3, 21,  2)  (  3, 21,  2)  (  3, 21,  2)  (  3, 21,  2)
  0 -0.9271E-08  0 -0.5707E-08  0  0.5082E-08  1  0.4517E-08
   (  3, 17, 17)  (  3, 17, 17)  (  4, 21,  3)  (  4, 21,  3)



 OUTPUT CONTROL FOR STRESS PERIOD   33   TIME STEP    2
    SAVE HEAD FOR ALL LAYERS
    SAVE DRAWDOWN FOR ALL LAYERS
    SAVE BUDGET
    PRINT BUDGET
 UBDSV1 SAVING "         STORAGE" ON UNIT   9 AT TIME STEP  2, STRESS PERIOD  33
 UBDSV2 SAVING "   CONSTANT HEAD" ON UNIT   9 AT TIME STEP  2, STRESS PERIOD  33
 UBDSV1 SAVING "FLOW RIGHT FACE " ON UNIT   9 AT TIME STEP  2, STRESS PERIOD  33
 UBDSV1 SAVING "FLOW FRONT FACE " ON UNIT   9 AT TIME STEP  2, STRESS PERIOD  33
 UBDSV1 SAVING "FLOW LOWER FACE " ON UNIT   9 AT TIME STEP  2, STRESS PERIOD  33
 UBDSV3 SAVING "        RECHARGE" ON UNIT   9 AT TIME STEP  2, STRESS PERIOD  33

 HEAD WILL BE SAVED ON UNIT   37 AT END OF TIME STEP    2, STRESS PERIOD   33

 DRAWDOWN WILL BE SAVED ON UNIT   38 AT END OF TIME STEP    2, STRESS PERIOD   33
1
  VOLUMETRIC BUDGET FOR ENTIRE MODEL AT END OF TIME STEP    2, STRESS PERIOD  33
  ------------------------------------------------------------------------------

     CUMULATIVE VOLUMES      L**3       RATES FOR THIS TIME STEP      L**3/T
     ------------------                 ------------------------

           IN:                                      IN:
           ---                                      ---
             STORAGE =        8054.4751               STORAGE =       1.1118E-03
       CONSTANT HEAD =       10170.2148         CONSTANT HEAD =       2.4713E-03
            RECHARGE =         405.6515              RECHARGE =       9.7813E-05

            TOTAL IN =       18630.3418              TOTAL IN =       3.6809E-03

          OUT:                                     OUT:
          ----                                     ----
             STORAGE =        2624.5713               STORAGE =           0.0000
       CONSTANT HEAD =       16006.1934         CONSTANT HEAD =       3.6810E-03
            RECHARGE =           0.0000              RECHARGE =           0.0000

           TOTAL OUT =       18630.7656             TOTAL OUT =       3.6810E-03

            IN - OUT =          -0.4238              IN - OUT =      -1.1199E-07

 PERCENT DISCREPANCY =          -0.00     PERCENT DISCREPANCY =          -0.00






         TIME SUMMARY AT END OF TIME STEP    2 IN STRESS PERIOD   33
                    SECONDS     MINUTES      HOURS       DAYS        YEARS
                    -----------------------------------------------------------
   TIME STEP LENGTH  86400.      1440.0      24.000      1.0000     2.73785E-03
 STRESS PERIOD TIME 1.72800E+05  2880.0      48.000      2.0000     5.47570E-03
         TOTAL TIME 4.14720E+06  69120.      1152.0      48.000     0.13142    
1

 SOLVING FOR HEAD 
     3 CALLS TO PCG ROUTINE FOR TIME STEP   3 IN STRESS PERIOD   33
    47 TOTAL ITERATIONS

 MAXIMUM HEAD CHANGE FOR EACH ITERATION (1 INDICATES THE FIRST INNER ITERATION):

    HEAD CHANGE    HEAD CHANGE    HEAD CHANGE    HEAD CHANGE    HEAD CHANGE 
   LAYER,ROW,COL  LAYER,ROW,COL  LAYER,ROW,COL  LAYER,ROW,COL  LAYER,ROW,COL
 ---------------------------------------------------------------------------
  1 -0.6829E-01  0  0.5565E-01  0 -0.4261E-01  0  0.3038E-01  0 -0.1948E-01
   (  5, 21,  2)  (  5, 20,  1)  (  5, 18,  1)  (  5, 17,  1)  (  5, 16,  1)
  0  0.1097E-01  0 -0.9240E-02  0 -0.4051E-02  0 -0.2625E-02  0 -0.1519E-02
   (  5, 14,  1)  (  5, 18,  1)  (  5, 19,  1)  (  5, 11,  2)  (  5, 14,  4)
  0  0.1382E-02  0 -0.1051E-02  0  0.7854E-03  0 -0.4038E-03  0  0.2433E-03
   (  5, 19,  1)  (  5, 16,  3)  (  5, 15,  3)  (  5, 15,  5)  (  5, 14,  5)
  0  0.1565E-03  0 -0.1058E-03  0  0.6683E-04  0 -0.7134E-04  0  0.5014E-04
   (  5, 17,  2)  (  5, 16,  2)  (  5, 18,  2)  (  5, 17,  2)  (  5, 17,  1)
  0 -0.3625E-04  0 -0.2016E-04  0  0.1087E-04  0 -0.8877E-05  0 -0.5994E-05
   (  5, 15,  1)  (  5,  6,  1)  (  5,  6,  1)  (  5,  6,  1)  (  5, 18,  1)
  0  0.4886E-05  0  0.2364E-05  0 -0.1743E-05  0  0.9436E-06  1  0.2021E-03
   (  5, 19,  1)  (  5, 13,  1)  (  5,  8,  1)  (  5,  8,  1)  (  5, 10,  1)
  0  0.1450E-03  0  0.1707E-03  0 -0.9659E-04  0  0.9000E-04  0 -0.4728E-04
   (  3, 10,  5)  (  5, 14,  1)  (  5, 15,  1)  (  5, 17,  1)  (  5, 18,  1)
  0  0.3463E-04  0 -0.2959E-04  0  0.2005E-04  0 -0.1545E-04  0  0.4999E-05
   (  5, 19,  1)  (  5, 19,  1)  (  5, 20,  1)  (  5, 20,  1)  (  5, 15,  6)
  0 -0.4267E-05  0  0.2466E-05  0  0.1826E-05  0  0.1026E-05  0  0.1144E-05
   (  5, 15,  5)  (  5, 13,  5)  (  5, 10,  3)  (  5,  6,  2)  (  5,  8,  1)
  0  0.4550E-06  1  0.3480E-06
   (  5,  7,  3)  (  5, 17,  1)

 MAXIMUM RESIDUAL FOR EACH ITERATION (1 INDICATES THE FIRST INNER ITERATION):

    RESIDUAL       RESIDUAL       RESIDUAL       RESIDUAL       RESIDUAL    
   LAYER,ROW,COL  LAYER,ROW,COL  LAYER,ROW,COL  LAYER,ROW,COL  LAYER,ROW,COL
 ---------------------------------------------------------------------------
  1  0.9680E-03  0  0.7422E-03  0  0.4977E-03  0  0.3133E-03  0  0.1874E-03
   (  3, 17, 17)  (  3, 17, 17)  (  3, 17, 17)  (  3, 17, 17)  (  3, 17, 17)
  0  0.1087E-03  0  0.5767E-04  0 -0.4807E-04  0 -0.3858E-04  0 -0.2690E-04
   (  3, 20, 11)  (  3, 20, 11)  (  4, 21,  2)  (  4, 21,  2)  (  4, 21,  2)
  0  0.1901E-04  0  0.1269E-04  0  0.8436E-05  0 -0.5906E-05  0 -0.4350E-05
   (  4, 16, 17)  (  4, 16, 17)  (  4, 16, 17)  (  3, 21,  6)  (  3, 21,  6)
  0 -0.3050E-05  0 -0.2050E-05  0 -0.1237E-05  0 -0.7607E-06  0 -0.5065E-06
   (  3, 21,  6)  (  3, 21,  6)  (  3, 21,  6)  (  3, 21,  6)  (  3, 21,  6)
  0 -0.2593E-06  0  0.1631E-06  0  0.1108E-06  0  0.7650E-07  0  0.4949E-07
   (  3, 21,  5)  (  5, 15, 17)  (  5, 15, 17)  (  5, 15, 17)  (  5, 15, 17)
  0  0.3707E-07  0  0.2405E-07  0  0.1789E-07  0  0.1293E-07  1 -0.2365E-05
   (  5, 16, 17)  (  5, 16, 17)  (  3, 21,  6)  (  3, 21,  6)  (  3, 10,  5)
  0 -0.1662E-05  0 -0.9750E-06  0  0.5483E-06  0  0.4138E-06  0  0.3611E-06
   (  3, 10,  5)  (  3, 10,  5)  (  4, 15,  4)  (  4, 15,  4)  (  4, 15,  4)
  0  0.2766E-06  0  0.1202E-06  0 -0.8329E-07  0  0.6550E-07  0  0.4843E-07
   (  4, 15,  4)  (  4, 15,  4)  (  4, 14,  4)  (  4, 20,  2)  (  4, 20,  2)
  0 -0.3456E-07  0  0.2207E-07  0 -0.1548E-07  0  0.8962E-08  0 -0.7657E-08
   (  4, 15,  3)  (  4, 21,  2)  (  4,  9,  5)  (  4, 16,  3)  (  4,  9,  1)
  0 -0.5420E-08  1 -0.4261E-08
   (  4, 20,  2)  (  4, 20,  2)



 OUTPUT CONTROL FOR STRESS PERIOD   33   TIME STEP    3
    SAVE HEAD FOR ALL LAYERS
    SAVE DRAWDOWN FOR ALL LAYERS
    SAVE BUDGET
    PRINT BUDGET
 UBDSV1 SAVING "         STORAGE" ON UNIT   9 AT TIME STEP  3, STRESS PERIOD  33
 UBDSV2 SAVING "   CONSTANT HEAD" ON UNIT   9 AT TIME STEP  3, STRESS PERIOD  33
 UBDSV1 SAVING "FLOW RIGHT FACE " ON UNIT   9 AT TIME STEP  3, STRESS PERIOD  33
 UBDSV1 SAVING "FLOW FRONT FACE " ON UNIT   9 AT TIME STEP  3, STRESS PERIOD  33
 UBDSV1 SAVING "FLOW LOWER FACE " ON UNIT   9 AT TIME STEP  3, STRESS PERIOD  33
 UBDSV3 SAVING "        RECHARGE" ON UNIT   9 AT TIME STEP  3, STRESS PERIOD  33

 HEAD WILL BE SAVED ON UNIT   37 AT END OF TIME STEP    3, STRESS PERIOD   33

 DRAWDOWN WILL BE SAVED ON UNIT   38 AT END OF TIME STEP    3, STRESS PERIOD   33
1
  VOLUMETRIC BUDGET FOR ENTIRE MODEL AT END OF TIME STEP    3, STRESS PERIOD  33
  ------------------------------------------------------------------------------

     CUMULATIVE VOLUMES      L**3       RATES FOR THIS TIME STEP      L**3/T
     ------------------                 ------------------------

           IN:                                      IN:
           ---                                      ---
             STORAGE =        8145.4644               STORAGE =       1.0531E-03
       CONSTANT HEAD =       10381.1084         CONSTANT HEAD =       2.4409E-03
            RECHARGE =         414.1026              RECHARGE =       9.7813E-05

            TOTAL IN =       18940.6758              TOTAL IN =       3.5918E-03

          OUT:                                     OUT:
          ----                                     ----
             STORAGE =        2624.5713               STORAGE =           0.0000
       CONSTANT HEAD =       16316.5332         CONSTANT HEAD =       3.5919E-03
            RECHARGE =           0.0000              RECHARGE =           0.0000

           TOTAL OUT =       18941.1055             TOTAL OUT =       3.5919E-03

            IN - OUT =          -0.4297              IN - OUT =      -6.7754E-08

 PERCENT DISCREPANCY =          -0.00     PERCENT DISCREPANCY =          -0.00






         TIME SUMMARY AT END OF TIME STEP    3 IN STRESS PERIOD   33
                    SECONDS     MINUTES      HOURS       DAYS        YEARS
                    -----------------------------------------------------------
   TIME STEP LENGTH  86400.      1440.0      24.000      1.0000     2.73785E-03
 STRESS PERIOD TIME 2.59200E+05  4320.0      72.000      3.0000     8.21355E-03
         TOTAL TIME 4.23360E+06  70560.      1176.0      49.000     0.13415    
1
1
                            STRESS PERIOD NO.   34, LENGTH =   86400.00    
                            -----------------------------------------------

                              NUMBER OF TIME STEPS =     1

                               MULTIPLIER FOR DELT =     1.000

                            INITIAL TIME STEP SIZE =   86400.00    

 REUSING RECH FROM LAST STRESS PERIOD

 CHD NO.   LAYER   ROW   COL    START HEAD        END HEAD         IFACE           
 ----------------------------------------------------------------------------------
      1      4      1      1       109.4           109.4           0.000    
      2      5      1      1       109.4           109.4           0.000    
      3      4      1      2       109.4           109.4           0.000    
      4      5      1      2       109.4           109.4           0.000    
      5      4      1      3       109.4           109.4           0.000    
      6      5      1      3       109.4           109.4           0.000    
      7      4      1      4       109.4           109.4           0.000    
      8      5      1      4       109.4           109.4           0.000    
      9      4      1      5       109.4           109.4           0.000    
     10      5      1      5       109.4           109.4           0.000    
     11      4      1      6       109.4           109.4           0.000    
     12      5      1      6       109.4           109.4           0.000    
     13      4      1      7       109.4           109.4           0.000    
     14      5      1      7       109.4           109.4           0.000    
     15      4      1      8       109.4           109.4           0.000    
     16      5      1      8       109.4           109.4           0.000    
     17      4      1      9       109.4           109.4           0.000    
     18      5      1      9       109.4           109.4           0.000    
     19      4      1     10       109.4           109.4           0.000    
     20      5      1     10       109.4           109.4           0.000    
     21      4      1     11       109.4           109.4           0.000    
     22      5      1     11       109.4           109.4           0.000    
     23      4      1     12       109.4           109.4           0.000    
     24      5      1     12       109.4           109.4           0.000    
     25      4      1     13       109.4           109.4           0.000    
     26      5      1     13       109.4           109.4           0.000    
     27      4      1     14       109.4           109.4           0.000    
     28      5      1     14       109.4           109.4           0.000    
     29      4      1     15       109.4           109.4           0.000    
     30      5      1     15       109.4           109.4           0.000    
     31      4      1     16       109.4           109.4           0.000    
     32      5      1     16       109.4           109.4           0.000    
     33      4      1     17       109.4           109.4           0.000    
     34      5      1     17       109.4           109.4           0.000    
     35      4     17     17       109.1           109.2           0.000    
     36      5     17     17       109.1           109.2           0.000    
     37      4     18     17       109.1           109.2           0.000    
     38      5     18     17       109.1           109.2           0.000    
     39      4     18     16       109.1           109.2           0.000    
     40      5     18     16       109.1           109.2           0.000    
     41      4     19     16       109.1           109.2           0.000    
     42      5     19     16       109.1           109.2           0.000    
     43      4     19     15       109.1           109.2           0.000    
     44      5     19     15       109.1           109.2           0.000    
     45      4     20     15       109.1           109.2           0.000    
     46      5     20     15       109.1           109.2           0.000    
     47      4     20     14       109.1           109.2           0.000    
     48      5     20     14       109.1           109.2           0.000    
     49      4     20     13       109.1           109.1           0.000    
     50      5     20     13       109.1           109.1           0.000    
     51      4     20     12       109.1           109.1           0.000    
     52      5     20     12       109.1           109.1           0.000    
     53      4     20     11       109.1           109.1           0.000    
     54      5     20     11       109.1           109.1           0.000    
     55      4     21     11       109.1           109.1           0.000    
     56      5     21     11       109.1           109.1           0.000    
     57      4     21     10       109.1           109.1           0.000    
     58      5     21     10       109.1           109.1           0.000    
     59      4     21      9       109.1           109.1           0.000    
     60      5     21      9       109.1           109.1           0.000    
     61      4     21      8       109.1           109.1           0.000    
     62      5     21      8       109.1           109.1           0.000    
     63      4     21      7       109.1           109.1           0.000    
     64      5     21      7       109.1           109.1           0.000    
     65      4     21      6       109.1           109.1           0.000    
     66      5     21      6       109.1           109.1           0.000    
     67      4     21      5       109.1           109.1           0.000    
     68      5     21      5       109.1           109.1           0.000    
     69      4     22      5       109.1           109.1           0.000    
     70      5     22      5       109.1           109.1           0.000    
     71      4     22      4       109.1           109.1           0.000    
     72      5     22      4       109.1           109.1           0.000    
     73      4     22      3       109.1           109.1           0.000    
     74      5     22      3       109.1           109.1           0.000    
     75      4     22      2       109.1           109.1           0.000    
     76      5     22      2       109.1           109.1           0.000    
     77      4     22      1       109.1           109.1           0.000    
     78      5     22      1       109.1           109.1           0.000    


     78 TIME-VARIANT SPECIFIED-HEAD CELLS

 SOLVING FOR HEAD 


     3 CALLS TO PCG ROUTINE FOR TIME STEP   1 IN STRESS PERIOD   34
    45 TOTAL ITERATIONS

 MAXIMUM HEAD CHANGE FOR EACH ITERATION (1 INDICATES THE FIRST INNER ITERATION):

    HEAD CHANGE    HEAD CHANGE    HEAD CHANGE    HEAD CHANGE    HEAD CHANGE 
   LAYER,ROW,COL  LAYER,ROW,COL  LAYER,ROW,COL  LAYER,ROW,COL  LAYER,ROW,COL
 ---------------------------------------------------------------------------
  1  0.1373      0 -0.1067      0  0.7921E-01  0  0.5700E-01  0 -0.4137E-01
   (  5, 21,  2)  (  5, 20,  1)  (  5, 19,  1)  (  5, 20,  1)  (  5, 19,  1)
  0  0.2743E-01  0 -0.1939E-01  0  0.1255E-01  0 -0.8194E-02  0  0.3857E-02
   (  5, 18,  1)  (  5, 16,  1)  (  5, 19,  1)  (  5, 18,  1)  (  5, 14,  3)
  0 -0.3126E-02  0  0.2095E-02  0 -0.1589E-02  0 -0.8101E-03  0  0.4646E-03
   (  5, 19,  1)  (  5, 16,  3)  (  5, 15,  3)  (  5, 19,  3)  (  5, 18,  2)
  0 -0.3872E-03  0  0.2267E-03  0 -0.1327E-03  0  0.1455E-03  0 -0.8851E-04
   (  5, 17,  2)  (  5, 16,  2)  (  5,  6,  1)  (  5,  6,  1)  (  5,  6,  1)
  0 -0.6572E-04  0  0.5629E-04  0 -0.2666E-04  0  0.2076E-04  0 -0.1693E-04
   (  5, 15,  1)  (  5, 16,  1)  (  5, 18,  1)  (  5, 18,  1)  (  5, 19,  1)
  0  0.8187E-05  0 -0.5451E-05  0 -0.2617E-05  0 -0.2082E-05  0 -0.1708E-05
   (  5, 15,  4)  (  5, 17,  5)  (  5,  6,  3)  (  5, 13,  5)  (  5, 16,  4)
  1  0.1751E-03  0  0.8438E-04  0 -0.8527E-04  0  0.7129E-04  0 -0.6140E-04
   (  5, 20,  3)  (  5, 15,  1)  (  5, 20,  3)  (  5, 20,  1)  (  5, 18,  1)
  0  0.2886E-04  0 -0.1577E-04  0 -0.1006E-04  0  0.9310E-05  0 -0.5555E-05
   (  5, 17,  1)  (  5, 19,  2)  (  5, 20,  2)  (  5, 18,  2)  (  5, 19,  4)
  0  0.3805E-05  0  0.2269E-05  0 -0.1534E-05  0  0.7987E-06  1 -0.4433E-06
   (  5, 17,  1)  (  5, 18,  1)  (  5, 18,  4)  (  5, 11,  6)  (  5, 11,  7)

 MAXIMUM RESIDUAL FOR EACH ITERATION (1 INDICATES THE FIRST INNER ITERATION):

    RESIDUAL       RESIDUAL       RESIDUAL       RESIDUAL       RESIDUAL    
   LAYER,ROW,COL  LAYER,ROW,COL  LAYER,ROW,COL  LAYER,ROW,COL  LAYER,ROW,COL
 ---------------------------------------------------------------------------
  1 -0.2678E-02  0 -0.2103E-02  0 -0.1429E-02  0 -0.8784E-03  0 -0.5113E-03
   (  3, 17, 17)  (  3, 17, 17)  (  3, 17, 17)  (  3, 17, 17)  (  3, 20, 11)
  0 -0.3076E-03  0 -0.1999E-03  0 -0.1297E-03  0 -0.1006E-03  0 -0.7431E-04
   (  3, 20, 11)  (  3, 20, 11)  (  4, 16, 17)  (  4, 16, 17)  (  4, 16, 17)
  0 -0.5445E-04  0 -0.3721E-04  0 -0.2519E-04  0 -0.1668E-04  0 -0.1106E-04
   (  4, 16, 17)  (  4, 16, 17)  (  4, 16, 17)  (  4, 16, 17)  (  4, 16, 17)
  0 -0.6923E-05  0 -0.4294E-05  0  0.2506E-05  0  0.1454E-05  0  0.7835E-06
   (  4, 16, 17)  (  4, 16, 17)  (  3, 21,  6)  (  3, 21,  6)  (  3, 21,  5)
  0  0.5694E-06  0  0.3758E-06  0 -0.2634E-06  0 -0.2172E-06  0 -0.1748E-06
   (  3, 21,  5)  (  3, 21,  5)  (  3, 17, 17)  (  3, 17, 17)  (  3, 17, 17)
  0 -0.1298E-06  0 -0.8900E-07  0 -0.5873E-07  0 -0.3941E-07  0 -0.2631E-07
   (  3, 17, 17)  (  3, 17, 17)  (  3, 17, 17)  (  3, 17, 17)  (  3, 17, 17)
  1 -0.2253E-05  0 -0.1333E-05  0  0.8610E-06  0  0.6192E-06  0  0.4423E-06
   (  3, 20,  3)  (  3, 20,  3)  (  4, 20,  3)  (  4, 20,  3)  (  4, 20,  3)
  0  0.2838E-06  0  0.1649E-06  0 -0.1167E-06  0 -0.1127E-06  0 -0.9153E-07
   (  4, 20,  3)  (  4, 20,  3)  (  4, 20,  2)  (  4, 20,  2)  (  4, 20,  2)
  0 -0.6395E-07  0 -0.3752E-07  0  0.2493E-07  0  0.1846E-07  1  0.1646E-07
   (  4, 20,  2)  (  4, 20,  2)  (  4, 21,  2)  (  4, 21,  2)  (  4, 21,  2)



 OUTPUT CONTROL FOR STRESS PERIOD   34   TIME STEP    1
    SAVE HEAD FOR ALL LAYERS
    SAVE DRAWDOWN FOR ALL LAYERS
    SAVE BUDGET
    PRINT BUDGET
 UBDSV1 SAVING "         STORAGE" ON UNIT   9 AT TIME STEP  1, STRESS PERIOD  34
 UBDSV2 SAVING "   CONSTANT HEAD" ON UNIT   9 AT TIME STEP  1, STRESS PERIOD  34
 UBDSV1 SAVING "FLOW RIGHT FACE " ON UNIT   9 AT TIME STEP  1, STRESS PERIOD  34
 UBDSV1 SAVING "FLOW FRONT FACE " ON UNIT   9 AT TIME STEP  1, STRESS PERIOD  34
 UBDSV1 SAVING "FLOW LOWER FACE " ON UNIT   9 AT TIME STEP  1, STRESS PERIOD  34
 UBDSV3 SAVING "        RECHARGE" ON UNIT   9 AT TIME STEP  1, STRESS PERIOD  34

 HEAD WILL BE SAVED ON UNIT   37 AT END OF TIME STEP    1, STRESS PERIOD   34

 DRAWDOWN WILL BE SAVED ON UNIT   38 AT END OF TIME STEP    1, STRESS PERIOD   34
1
  VOLUMETRIC BUDGET FOR ENTIRE MODEL AT END OF TIME STEP    1, STRESS PERIOD  34
  ------------------------------------------------------------------------------

     CUMULATIVE VOLUMES      L**3       RATES FOR THIS TIME STEP      L**3/T
     ------------------                 ------------------------

           IN:                                      IN:
           ---                                      ---
             STORAGE =        8156.0742               STORAGE =       1.2280E-04
       CONSTANT HEAD =       10572.9561         CONSTANT HEAD =       2.2205E-03
            RECHARGE =         422.5536              RECHARGE =       9.7813E-05

            TOTAL IN =       19151.5840              TOTAL IN =       2.4411E-03

          OUT:                                     OUT:
          ----                                     ----
             STORAGE =        2674.5234               STORAGE =       5.7815E-04
       CONSTANT HEAD =       16477.4980         CONSTANT HEAD =       1.8630E-03
            RECHARGE =           0.0000              RECHARGE =           0.0000

           TOTAL OUT =       19152.0215             TOTAL OUT =       2.4412E-03

            IN - OUT =          -0.4375              IN - OUT =      -1.0594E-07

 PERCENT DISCREPANCY =          -0.00     PERCENT DISCREPANCY =          -0.00






         TIME SUMMARY AT END OF TIME STEP    1 IN STRESS PERIOD   34
                    SECONDS     MINUTES      HOURS       DAYS        YEARS
                    -----------------------------------------------------------
   TIME STEP LENGTH  86400.      1440.0      24.000      1.0000     2.73785E-03
 STRESS PERIOD TIME  86400.      1440.0      24.000      1.0000     2.73785E-03
         TOTAL TIME 4.32000E+06  72000.      1200.0      50.000     0.13689    
1
1
                            STRESS PERIOD NO.   35, LENGTH =   86400.00    
                            -----------------------------------------------

                              NUMBER OF TIME STEPS =     1

                               MULTIPLIER FOR DELT =     1.000

                            INITIAL TIME STEP SIZE =   86400.00    

 REUSING RECH FROM LAST STRESS PERIOD

 CHD NO.   LAYER   ROW   COL    START HEAD        END HEAD         IFACE           
 ----------------------------------------------------------------------------------
      1      4      1      1       109.4           109.5           0.000    
      2      5      1      1       109.4           109.5           0.000    
      3      4      1      2       109.4           109.5           0.000    
      4      5      1      2       109.4           109.5           0.000    
      5      4      1      3       109.4           109.5           0.000    
      6      5      1      3       109.4           109.5           0.000    
      7      4      1      4       109.4           109.5           0.000    
      8      5      1      4       109.4           109.5           0.000    
      9      4      1      5       109.4           109.5           0.000    
     10      5      1      5       109.4           109.5           0.000    
     11      4      1      6       109.4           109.5           0.000    
     12      5      1      6       109.4           109.5           0.000    
     13      4      1      7       109.4           109.5           0.000    
     14      5      1      7       109.4           109.5           0.000    
     15      4      1      8       109.4           109.5           0.000    
     16      5      1      8       109.4           109.5           0.000    
     17      4      1      9       109.4           109.5           0.000    
     18      5      1      9       109.4           109.5           0.000    
     19      4      1     10       109.4           109.5           0.000    
     20      5      1     10       109.4           109.5           0.000    
     21      4      1     11       109.4           109.5           0.000    
     22      5      1     11       109.4           109.5           0.000    
     23      4      1     12       109.4           109.5           0.000    
     24      5      1     12       109.4           109.5           0.000    
     25      4      1     13       109.4           109.5           0.000    
     26      5      1     13       109.4           109.5           0.000    
     27      4      1     14       109.4           109.5           0.000    
     28      5      1     14       109.4           109.5           0.000    
     29      4      1     15       109.4           109.5           0.000    
     30      5      1     15       109.4           109.5           0.000    
     31      4      1     16       109.4           109.5           0.000    
     32      5      1     16       109.4           109.5           0.000    
     33      4      1     17       109.4           109.5           0.000    
     34      5      1     17       109.4           109.5           0.000    
     35      4     17     17       109.2           109.6           0.000    
     36      5     17     17       109.2           109.6           0.000    
     37      4     18     17       109.2           109.6           0.000    
     38      5     18     17       109.2           109.6           0.000    
     39      4     18     16       109.2           109.6           0.000    
     40      5     18     16       109.2           109.6           0.000    
     41      4     19     16       109.2           109.6           0.000    
     42      5     19     16       109.2           109.6           0.000    
     43      4     19     15       109.2           109.6           0.000    
     44      5     19     15       109.2           109.6           0.000    
     45      4     20     15       109.2           109.6           0.000    
     46      5     20     15       109.2           109.6           0.000    
     47      4     20     14       109.2           109.6           0.000    
     48      5     20     14       109.2           109.6           0.000    
     49      4     20     13       109.1           109.6           0.000    
     50      5     20     13       109.1           109.6           0.000    
     51      4     20     12       109.1           109.6           0.000    
     52      5     20     12       109.1           109.6           0.000    
     53      4     20     11       109.1           109.6           0.000    
     54      5     20     11       109.1           109.6           0.000    
     55      4     21     11       109.1           109.6           0.000    
     56      5     21     11       109.1           109.6           0.000    
     57      4     21     10       109.1           109.6           0.000    
     58      5     21     10       109.1           109.6           0.000    
     59      4     21      9       109.1           109.5           0.000    
     60      5     21      9       109.1           109.5           0.000    
     61      4     21      8       109.1           109.5           0.000    
     62      5     21      8       109.1           109.5           0.000    
     63      4     21      7       109.1           109.5           0.000    
     64      5     21      7       109.1           109.5           0.000    
     65      4     21      6       109.1           109.5           0.000    
     66      5     21      6       109.1           109.5           0.000    
     67      4     21      5       109.1           109.5           0.000    
     68      5     21      5       109.1           109.5           0.000    
     69      4     22      5       109.1           109.5           0.000    
     70      5     22      5       109.1           109.5           0.000    
     71      4     22      4       109.1           109.5           0.000    
     72      5     22      4       109.1           109.5           0.000    
     73      4     22      3       109.1           109.5           0.000    
     74      5     22      3       109.1           109.5           0.000    
     75      4     22      2       109.1           109.5           0.000    
     76      5     22      2       109.1           109.5           0.000    
     77      4     22      1       109.1           109.5           0.000    
     78      5     22      1       109.1           109.5           0.000    


     78 TIME-VARIANT SPECIFIED-HEAD CELLS

 SOLVING FOR HEAD 


     4 CALLS TO PCG ROUTINE FOR TIME STEP   1 IN STRESS PERIOD   35
    75 TOTAL ITERATIONS

 MAXIMUM HEAD CHANGE FOR EACH ITERATION (1 INDICATES THE FIRST INNER ITERATION):

    HEAD CHANGE    HEAD CHANGE    HEAD CHANGE    HEAD CHANGE    HEAD CHANGE 
   LAYER,ROW,COL  LAYER,ROW,COL  LAYER,ROW,COL  LAYER,ROW,COL  LAYER,ROW,COL
 ---------------------------------------------------------------------------
  1   1.136      0 -0.8959      0  0.7108      0 -0.4781      0  0.3575    
   (  5, 21,  2)  (  5, 20,  1)  (  5, 19,  1)  (  5, 17,  1)  (  5, 16,  1)
  0 -0.2029      0  0.1933      0 -0.7000E-01  0 -0.4743E-01  0  0.3155E-01
   (  5, 15,  1)  (  5, 18,  1)  (  5, 17,  1)  (  5, 18,  1)  (  5, 14,  3)
  0 -0.2336E-01  0  0.1785E-01  0 -0.1330E-01  0 -0.5972E-02  0  0.3836E-02
   (  5, 19,  1)  (  5, 16,  3)  (  5, 15,  3)  (  5, 18,  1)  (  5, 18,  2)
  0 -0.2881E-02  0  0.1816E-02  0 -0.9596E-03  0  0.1066E-02  0 -0.8946E-03
   (  5, 17,  2)  (  5, 16,  2)  (  5, 15,  3)  (  5,  6,  1)  (  5, 17,  1)
  0  0.6931E-03  0  0.3696E-03  0  0.1763E-03  0 -0.1458E-03  0 -0.1266E-03
   (  5, 16,  1)  (  5,  6,  1)  (  5, 14,  4)  (  5, 14,  2)  (  5, 19,  1)
  0  0.6761E-04  0 -0.4791E-04  0  0.2767E-04  0 -0.1817E-04  0 -0.1387E-04
   (  5, 15,  4)  (  5, 17,  5)  (  5,  8,  1)  (  5,  8,  1)  (  5, 18,  5)
  1  0.5827E-02  0  0.6022E-02  0  0.7688E-02  0  0.8787E-02  0  0.1094E-01
   (  5, 16,  2)  (  5, 13,  4)  (  5, 15,  1)  (  5, 13,  1)  (  5, 18,  1)
  0  0.7562E-02  0  0.5252E-02  0 -0.2828E-02  0  0.2081E-02  0 -0.2274E-02
   (  5, 16,  3)  (  5, 20,  1)  (  5, 16,  3)  (  5, 20,  1)  (  5, 16,  5)
  0 -0.1819E-02  0  0.9997E-03  0 -0.1003E-02  0  0.5283E-03  0 -0.3841E-03
   (  5, 16,  1)  (  5, 14,  1)  (  5, 19,  3)  (  5, 19,  3)  (  5, 20,  3)
  0  0.2859E-03  0 -0.2193E-03  0 -0.2095E-03  0  0.1334E-03  0 -0.1180E-03
   (  5, 18,  1)  (  5, 19,  1)  (  5, 18,  4)  (  5, 17,  3)  (  5, 17,  2)
  0  0.7667E-04  0 -0.8027E-04  0  0.7457E-04  0 -0.3689E-04  0  0.3252E-04
   (  5, 15,  1)  (  5, 18,  1)  (  5, 20,  1)  (  5, 20,  2)  (  5, 16,  2)
  0  0.2232E-04  0  0.1293E-04  0 -0.1320E-04  0  0.9683E-05  0  0.6494E-05
   (  5, 18,  1)  (  5, 20,  3)  (  5, 18,  1)  (  5, 19,  1)  (  5, 17,  2)
  1 -0.5936E-04  0  0.7785E-04  0  0.4438E-04  0  0.2801E-04  0  0.3492E-04
   (  5, 17,  2)  (  5, 15,  2)  (  5, 18,  3)  (  5, 13,  2)  (  5, 19,  1)
  0 -0.1266E-04  0  0.6544E-05  0 -0.7370E-05  0 -0.3609E-05  0  0.3159E-05
   (  5, 18,  1)  (  5, 10,  1)  (  5, 12,  5)  (  5, 19,  2)  (  5, 19,  3)
  0 -0.2460E-05  0  0.2342E-05  0 -0.1281E-05  0 -0.9400E-06  1 -0.8509E-06
   (  5, 14,  1)  (  5, 16,  1)  (  5, 15,  5)  (  5, 11,  1)  (  5, 15,  4)

 MAXIMUM RESIDUAL FOR EACH ITERATION (1 INDICATES THE FIRST INNER ITERATION):

    RESIDUAL       RESIDUAL       RESIDUAL       RESIDUAL       RESIDUAL    
   LAYER,ROW,COL  LAYER,ROW,COL  LAYER,ROW,COL  LAYER,ROW,COL  LAYER,ROW,COL
 ---------------------------------------------------------------------------
  1 -0.2161E-01  0 -0.1701E-01  0 -0.1162E-01  0 -0.7219E-02  0 -0.4322E-02
   (  3, 17, 17)  (  3, 17, 17)  (  3, 17, 17)  (  3, 17, 17)  (  3, 20, 11)
  0 -0.2777E-02  0 -0.1662E-02  0 -0.1049E-02  0 -0.8108E-03  0 -0.5969E-03
   (  3, 20, 11)  (  3, 20, 11)  (  4, 16, 17)  (  4, 16, 17)  (  4, 16, 17)
  0 -0.4399E-03  0 -0.3015E-03  0 -0.2044E-03  0 -0.1351E-03  0 -0.8885E-04
   (  4, 16, 17)  (  4, 16, 17)  (  4, 16, 17)  (  4, 16, 17)  (  4, 16, 17)
  0 -0.5601E-04  0  0.3577E-04  0  0.2161E-04  0  0.1290E-04  0  0.8413E-05
   (  4, 16, 17)  (  3, 21,  6)  (  3, 21,  6)  (  3, 21,  6)  (  3, 21,  6)
  0  0.4923E-05  0 -0.3106E-05  0 -0.2376E-05  0 -0.1946E-05  0 -0.1573E-05
   (  3, 21,  6)  (  3, 17, 17)  (  3, 17, 17)  (  3, 17, 17)  (  3, 17, 17)
  0 -0.1175E-05  0 -0.8089E-06  0 -0.5368E-06  0 -0.3523E-06  0 -0.2295E-06
   (  3, 17, 17)  (  3, 17, 17)  (  3, 17, 17)  (  3, 17, 17)  (  3, 17, 17)
  1 -0.4574E-04  0 -0.4377E-04  0 -0.3731E-04  0 -0.2921E-04  0 -0.3377E-04
   (  3, 19,  3)  (  3, 19,  3)  (  3, 19,  3)  (  3, 19,  3)  (  4, 21,  1)
  0 -0.2690E-04  0 -0.3390E-04  0 -0.2655E-04  0 -0.2430E-04  0 -0.1674E-04
   (  4, 21,  1)  (  4, 21,  1)  (  4, 21,  1)  (  4, 21,  1)  (  4, 21,  1)
  0  0.1408E-04  0  0.1354E-04  0  0.1276E-04  0  0.9991E-05  0  0.8124E-05
   (  4, 21,  2)  (  4, 21,  2)  (  4, 21,  2)  (  4, 21,  2)  (  4, 21,  2)
  0  0.6274E-05  0  0.5457E-05  0  0.3639E-05  0  0.1822E-05  0 -0.1018E-05
   (  4, 21,  2)  (  4, 21,  2)  (  4, 21,  2)  (  4, 21,  2)  (  4, 20,  2)
  0 -0.1031E-05  0 -0.8041E-06  0 -0.7026E-06  0 -0.4909E-06  0 -0.3141E-06
   (  4, 20,  2)  (  4, 20,  2)  (  4, 21,  3)  (  4, 21,  3)  (  4, 21,  3)
  0  0.2504E-06  0  0.1967E-06  0  0.1686E-06  0 -0.9638E-07  0 -0.7405E-07
   (  4, 20,  3)  (  4, 20,  3)  (  4, 20,  3)  (  4, 21,  2)  (  4, 21,  2)
  1  0.4878E-06  0  0.2123E-06  0  0.1424E-06  0  0.7445E-07  0 -0.7262E-07
   (  2, 14,  5)  (  5,  8,  1)  (  5,  8,  1)  (  4, 18,  3)  (  4, 20,  2)
  0 -0.5692E-07  0 -0.4511E-07  0 -0.3471E-07  0 -0.2387E-07  0  0.1434E-07
   (  4, 20,  2)  (  4, 20,  2)  (  4, 20,  2)  (  4, 19,  2)  (  2, 13,  5)
  0  0.1331E-07  0  0.1167E-07  0  0.8544E-08  0  0.6615E-08  1  0.5941E-08
   (  4, 21,  2)  (  4, 21,  2)  (  2, 13,  5)  (  2, 13,  5)  (  4, 21,  2)



 OUTPUT CONTROL FOR STRESS PERIOD   35   TIME STEP    1
    SAVE HEAD FOR ALL LAYERS
    SAVE DRAWDOWN FOR ALL LAYERS
    SAVE BUDGET
    PRINT BUDGET
 UBDSV1 SAVING "         STORAGE" ON UNIT   9 AT TIME STEP  1, STRESS PERIOD  35
 UBDSV2 SAVING "   CONSTANT HEAD" ON UNIT   9 AT TIME STEP  1, STRESS PERIOD  35
 UBDSV1 SAVING "FLOW RIGHT FACE " ON UNIT   9 AT TIME STEP  1, STRESS PERIOD  35
 UBDSV1 SAVING "FLOW FRONT FACE " ON UNIT   9 AT TIME STEP  1, STRESS PERIOD  35
 UBDSV1 SAVING "FLOW LOWER FACE " ON UNIT   9 AT TIME STEP  1, STRESS PERIOD  35
 UBDSV3 SAVING "        RECHARGE" ON UNIT   9 AT TIME STEP  1, STRESS PERIOD  35

 HEAD WILL BE SAVED ON UNIT   37 AT END OF TIME STEP    1, STRESS PERIOD   35

 DRAWDOWN WILL BE SAVED ON UNIT   38 AT END OF TIME STEP    1, STRESS PERIOD   35
1
  VOLUMETRIC BUDGET FOR ENTIRE MODEL AT END OF TIME STEP    1, STRESS PERIOD  35
  ------------------------------------------------------------------------------

     CUMULATIVE VOLUMES      L**3       RATES FOR THIS TIME STEP      L**3/T
     ------------------                 ------------------------

           IN:                                      IN:
           ---                                      ---
             STORAGE =        8156.0742               STORAGE =           0.0000
       CONSTANT HEAD =       11345.4775         CONSTANT HEAD =       8.9412E-03
            RECHARGE =         431.0047              RECHARGE =       9.7813E-05

            TOTAL IN =       19932.5547              TOTAL IN =       9.0390E-03

          OUT:                                     OUT:
          ----                                     ----
             STORAGE =        3455.5020               STORAGE =       9.0391E-03
       CONSTANT HEAD =       16477.4980         CONSTANT HEAD =           0.0000
            RECHARGE =           0.0000              RECHARGE =           0.0000

           TOTAL OUT =       19933.0000             TOTAL OUT =       9.0391E-03

            IN - OUT =          -0.4453              IN - OUT =      -6.7987E-08

 PERCENT DISCREPANCY =          -0.00     PERCENT DISCREPANCY =          -0.00






         TIME SUMMARY AT END OF TIME STEP    1 IN STRESS PERIOD   35
                    SECONDS     MINUTES      HOURS       DAYS        YEARS
                    -----------------------------------------------------------
   TIME STEP LENGTH  86400.      1440.0      24.000      1.0000     2.73785E-03
 STRESS PERIOD TIME  86400.      1440.0      24.000      1.0000     2.73785E-03
         TOTAL TIME 4.40640E+06  73440.      1224.0      51.000     0.13963    
1
1
                            STRESS PERIOD NO.   36, LENGTH =   86400.00    
                            -----------------------------------------------

                              NUMBER OF TIME STEPS =     1

                               MULTIPLIER FOR DELT =     1.000

                            INITIAL TIME STEP SIZE =   86400.00    

 REUSING RECH FROM LAST STRESS PERIOD

 CHD NO.   LAYER   ROW   COL    START HEAD        END HEAD         IFACE           
 ----------------------------------------------------------------------------------
      1      4      1      1       109.5           109.6           0.000    
      2      5      1      1       109.5           109.6           0.000    
      3      4      1      2       109.5           109.6           0.000    
      4      5      1      2       109.5           109.6           0.000    
      5      4      1      3       109.5           109.6           0.000    
      6      5      1      3       109.5           109.6           0.000    
      7      4      1      4       109.5           109.6           0.000    
      8      5      1      4       109.5           109.6           0.000    
      9      4      1      5       109.5           109.6           0.000    
     10      5      1      5       109.5           109.6           0.000    
     11      4      1      6       109.5           109.6           0.000    
     12      5      1      6       109.5           109.6           0.000    
     13      4      1      7       109.5           109.6           0.000    
     14      5      1      7       109.5           109.6           0.000    
     15      4      1      8       109.5           109.6           0.000    
     16      5      1      8       109.5           109.6           0.000    
     17      4      1      9       109.5           109.6           0.000    
     18      5      1      9       109.5           109.6           0.000    
     19      4      1     10       109.5           109.6           0.000    
     20      5      1     10       109.5           109.6           0.000    
     21      4      1     11       109.5           109.6           0.000    
     22      5      1     11       109.5           109.6           0.000    
     23      4      1     12       109.5           109.6           0.000    
     24      5      1     12       109.5           109.6           0.000    
     25      4      1     13       109.5           109.6           0.000    
     26      5      1     13       109.5           109.6           0.000    
     27      4      1     14       109.5           109.6           0.000    
     28      5      1     14       109.5           109.6           0.000    
     29      4      1     15       109.5           109.6           0.000    
     30      5      1     15       109.5           109.6           0.000    
     31      4      1     16       109.5           109.6           0.000    
     32      5      1     16       109.5           109.6           0.000    
     33      4      1     17       109.5           109.6           0.000    
     34      5      1     17       109.5           109.6           0.000    
     35      4     17     17       109.6           109.5           0.000    
     36      5     17     17       109.6           109.5           0.000    
     37      4     18     17       109.6           109.5           0.000    
     38      5     18     17       109.6           109.5           0.000    
     39      4     18     16       109.6           109.5           0.000    
     40      5     18     16       109.6           109.5           0.000    
     41      4     19     16       109.6           109.5           0.000    
     42      5     19     16       109.6           109.5           0.000    
     43      4     19     15       109.6           109.5           0.000    
     44      5     19     15       109.6           109.5           0.000    
     45      4     20     15       109.6           109.5           0.000    
     46      5     20     15       109.6           109.5           0.000    
     47      4     20     14       109.6           109.5           0.000    
     48      5     20     14       109.6           109.5           0.000    
     49      4     20     13       109.6           109.5           0.000    
     50      5     20     13       109.6           109.5           0.000    
     51      4     20     12       109.6           109.5           0.000    
     52      5     20     12       109.6           109.5           0.000    
     53      4     20     11       109.6           109.5           0.000    
     54      5     20     11       109.6           109.5           0.000    
     55      4     21     11       109.6           109.5           0.000    
     56      5     21     11       109.6           109.5           0.000    
     57      4     21     10       109.6           109.4           0.000    
     58      5     21     10       109.6           109.4           0.000    
     59      4     21      9       109.5           109.4           0.000    
     60      5     21      9       109.5           109.4           0.000    
     61      4     21      8       109.5           109.4           0.000    
     62      5     21      8       109.5           109.4           0.000    
     63      4     21      7       109.5           109.4           0.000    
     64      5     21      7       109.5           109.4           0.000    
     65      4     21      6       109.5           109.4           0.000    
     66      5     21      6       109.5           109.4           0.000    
     67      4     21      5       109.5           109.4           0.000    
     68      5     21      5       109.5           109.4           0.000    
     69      4     22      5       109.5           109.4           0.000    
     70      5     22      5       109.5           109.4           0.000    
     71      4     22      4       109.5           109.4           0.000    
     72      5     22      4       109.5           109.4           0.000    
     73      4     22      3       109.5           109.4           0.000    
     74      5     22      3       109.5           109.4           0.000    
     75      4     22      2       109.5           109.4           0.000    
     76      5     22      2       109.5           109.4           0.000    
     77      4     22      1       109.5           109.4           0.000    
     78      5     22      1       109.5           109.4           0.000    


     78 TIME-VARIANT SPECIFIED-HEAD CELLS

 SOLVING FOR HEAD 


     3 CALLS TO PCG ROUTINE FOR TIME STEP   1 IN STRESS PERIOD   36
    55 TOTAL ITERATIONS

 MAXIMUM HEAD CHANGE FOR EACH ITERATION (1 INDICATES THE FIRST INNER ITERATION):

    HEAD CHANGE    HEAD CHANGE    HEAD CHANGE    HEAD CHANGE    HEAD CHANGE 
   LAYER,ROW,COL  LAYER,ROW,COL  LAYER,ROW,COL  LAYER,ROW,COL  LAYER,ROW,COL
 ---------------------------------------------------------------------------
  1 -0.2019      0 -0.1297      0  0.1226      0 -0.1633      0 -0.1486    
   (  5, 21,  2)  (  5, 15,  2)  (  5, 20,  1)  (  5, 17,  1)  (  5, 19,  1)
  0  0.7546E-01  0 -0.7128E-01  0  0.5694E-01  0 -0.4024E-01  0 -0.2748E-01
   (  5, 13,  4)  (  5, 20,  2)  (  5, 19,  1)  (  5, 18,  1)  (  5, 19,  1)
  0  0.1650E-01  0  0.1321E-01  0 -0.1147E-01  0  0.7792E-02  0  0.6050E-02
   (  5, 12,  5)  (  5, 18,  1)  (  5, 15,  1)  (  5, 19,  1)  (  5, 15,  4)
  0 -0.3842E-02  0  0.3257E-02  0  0.4298E-02  0  0.3413E-02  0  0.1503E-02
   (  5, 18,  1)  (  5, 17,  1)  (  5, 16,  3)  (  5, 19,  3)  (  5, 17,  4)
  0 -0.1456E-02  0  0.7079E-03  0 -0.8633E-03  0 -0.5326E-03  0  0.4939E-03
   (  5, 17,  5)  (  5, 15,  1)  (  5, 19,  3)  (  5, 19,  1)  (  5, 19,  2)
  0 -0.4176E-03  0  0.2251E-03  0  0.1636E-03  0 -0.1419E-03  0  0.8647E-04
   (  5, 20,  3)  (  5, 15,  4)  (  5, 18,  1)  (  5, 19,  2)  (  5, 20,  1)
  1 -0.2078E-03  0  0.2476E-03  0 -0.2317E-03  0  0.1694E-03  0  0.1363E-03
   (  5, 20,  1)  (  5, 16,  1)  (  5, 16,  2)  (  5, 14,  2)  (  5, 18,  1)
  0 -0.1090E-03  0  0.9213E-04  0 -0.6674E-04  0 -0.4112E-04  0  0.2709E-04
   (  5, 19,  1)  (  5, 20,  2)  (  5, 10,  3)  (  5, 18,  2)  (  5, 19,  3)
  0 -0.2210E-04  0  0.1439E-04  0 -0.1370E-04  0 -0.1266E-04  0  0.7432E-05
   (  5, 19,  3)  (  5, 16,  1)  (  5, 14,  1)  (  5, 17,  5)  (  5, 15,  4)
  0 -0.5828E-05  0  0.3329E-05  0  0.2902E-05  0 -0.2106E-05  0  0.1693E-05
   (  5, 18,  1)  (  5, 19,  2)  (  5, 15,  3)  (  5, 20,  3)  (  5, 14,  1)
  0 -0.1316E-05  0  0.1937E-05  0  0.1240E-05  0 -0.8256E-06  1  0.7228E-06
   (  5, 15,  1)  (  5, 17,  2)  (  5, 19,  1)  (  5, 20,  2)  (  5, 20,  2)

 MAXIMUM RESIDUAL FOR EACH ITERATION (1 INDICATES THE FIRST INNER ITERATION):

    RESIDUAL       RESIDUAL       RESIDUAL       RESIDUAL       RESIDUAL    
   LAYER,ROW,COL  LAYER,ROW,COL  LAYER,ROW,COL  LAYER,ROW,COL  LAYER,ROW,COL
 ---------------------------------------------------------------------------
  1  0.6230E-02  0  0.5447E-02  0  0.4889E-02  0  0.4083E-02  0  0.3048E-02
   (  3, 17, 17)  (  3, 17, 17)  (  3, 17, 17)  (  3, 17, 17)  (  3, 17, 17)
  0  0.2232E-02  0  0.1412E-02  0  0.8413E-03  0  0.4874E-03  0  0.2821E-03
   (  3, 17, 17)  (  3, 17, 17)  (  3, 20, 11)  (  3, 20, 11)  (  4, 16, 17)
  0  0.2513E-03  0  0.2165E-03  0  0.1973E-03  0  0.1469E-03  0  0.1141E-03
   (  4, 16, 17)  (  4, 16, 17)  (  4, 16, 17)  (  4, 16, 17)  (  4, 16, 17)
  0  0.8950E-04  0  0.7975E-04  0  0.5906E-04  0  0.4166E-04  0  0.2873E-04
   (  4, 16, 17)  (  4, 16, 17)  (  4, 16, 17)  (  4, 16, 17)  (  4, 16, 17)
  0  0.2000E-04  0  0.1862E-04  0 -0.1273E-04  0 -0.1042E-04  0 -0.7237E-05
   (  4, 16, 17)  (  4, 16, 17)  (  3, 21,  6)  (  3, 21,  6)  (  3, 21,  6)
  0 -0.4308E-05  0 -0.2495E-05  0 -0.1786E-05  0 -0.1389E-05  0 -0.1030E-05
   (  3, 21,  6)  (  3, 21,  5)  (  3, 21,  5)  (  3, 21,  5)  (  3, 21,  5)
  1 -0.1452E-05  0 -0.1307E-05  0  0.8048E-06  0  0.6749E-06  0 -0.4929E-06
   (  3, 21,  5)  (  3, 21,  5)  (  2,  2,  6)  (  2,  2,  6)  (  4, 18, 14)
  0 -0.4625E-06  0 -0.3819E-06  0  0.2955E-06  0  0.2283E-06  0  0.1521E-06
   (  4, 18, 14)  (  4, 18, 14)  (  4, 20,  2)  (  4, 20,  2)  (  4, 20,  2)
  0  0.1451E-06  0  0.1299E-06  0  0.1081E-06  0  0.8739E-07  0  0.6606E-07
   (  4, 20,  2)  (  4, 20,  2)  (  4, 20,  2)  (  4, 20,  2)  (  4, 20,  2)
  0  0.4045E-07  0  0.2922E-07  0  0.1415E-07  0  0.1075E-07  0 -0.9832E-08
   (  4, 20,  2)  (  4, 20,  2)  (  2,  2,  1)  (  2,  2,  1)  (  4, 20,  2)
  0 -0.8932E-08  0 -0.9671E-08  0 -0.1026E-07  0 -0.9786E-08  1 -0.7168E-08
   (  4, 20,  2)  (  4, 20,  2)  (  4, 20,  2)  (  4, 20,  2)  (  4, 20,  2)



 OUTPUT CONTROL FOR STRESS PERIOD   36   TIME STEP    1
    SAVE HEAD FOR ALL LAYERS
    SAVE DRAWDOWN FOR ALL LAYERS
    SAVE BUDGET
    PRINT BUDGET
 UBDSV1 SAVING "         STORAGE" ON UNIT   9 AT TIME STEP  1, STRESS PERIOD  36
 UBDSV2 SAVING "   CONSTANT HEAD" ON UNIT   9 AT TIME STEP  1, STRESS PERIOD  36
 UBDSV1 SAVING "FLOW RIGHT FACE " ON UNIT   9 AT TIME STEP  1, STRESS PERIOD  36
 UBDSV1 SAVING "FLOW FRONT FACE " ON UNIT   9 AT TIME STEP  1, STRESS PERIOD  36
 UBDSV1 SAVING "FLOW LOWER FACE " ON UNIT   9 AT TIME STEP  1, STRESS PERIOD  36
 UBDSV3 SAVING "        RECHARGE" ON UNIT   9 AT TIME STEP  1, STRESS PERIOD  36

 HEAD WILL BE SAVED ON UNIT   37 AT END OF TIME STEP    1, STRESS PERIOD   36

 DRAWDOWN WILL BE SAVED ON UNIT   38 AT END OF TIME STEP    1, STRESS PERIOD   36
1
  VOLUMETRIC BUDGET FOR ENTIRE MODEL AT END OF TIME STEP    1, STRESS PERIOD  36
  ------------------------------------------------------------------------------

     CUMULATIVE VOLUMES      L**3       RATES FOR THIS TIME STEP      L**3/T
     ------------------                 ------------------------

           IN:                                      IN:
           ---                                      ---
             STORAGE =        8176.7100               STORAGE =       2.3884E-04
       CONSTANT HEAD =       11554.1982         CONSTANT HEAD =       2.4158E-03
            RECHARGE =         439.4558              RECHARGE =       9.7813E-05

            TOTAL IN =       20170.3633              TOTAL IN =       2.7524E-03

          OUT:                                     OUT:
          ----                                     ----
             STORAGE =        3625.8501               STORAGE =       1.9716E-03
       CONSTANT HEAD =       16544.9668         CONSTANT HEAD =       7.8088E-04
            RECHARGE =           0.0000              RECHARGE =           0.0000

           TOTAL OUT =       20170.8164             TOTAL OUT =       2.7525E-03

            IN - OUT =          -0.4531              IN - OUT =      -9.3132E-08

 PERCENT DISCREPANCY =          -0.00     PERCENT DISCREPANCY =          -0.00






         TIME SUMMARY AT END OF TIME STEP    1 IN STRESS PERIOD   36
                    SECONDS     MINUTES      HOURS       DAYS        YEARS
                    -----------------------------------------------------------
   TIME STEP LENGTH  86400.      1440.0      24.000      1.0000     2.73785E-03
 STRESS PERIOD TIME  86400.      1440.0      24.000      1.0000     2.73785E-03
         TOTAL TIME 4.49280E+06  74880.      1248.0      52.000     0.14237    
1
1
                            STRESS PERIOD NO.   37, LENGTH =   86400.00    
                            -----------------------------------------------

                              NUMBER OF TIME STEPS =     1

                               MULTIPLIER FOR DELT =     1.000

                            INITIAL TIME STEP SIZE =   86400.00    

 REUSING RECH FROM LAST STRESS PERIOD

 CHD NO.   LAYER   ROW   COL    START HEAD        END HEAD         IFACE           
 ----------------------------------------------------------------------------------
      1      4      1      1       109.6           109.6           0.000    
      2      5      1      1       109.6           109.6           0.000    
      3      4      1      2       109.6           109.6           0.000    
      4      5      1      2       109.6           109.6           0.000    
      5      4      1      3       109.6           109.6           0.000    
      6      5      1      3       109.6           109.6           0.000    
      7      4      1      4       109.6           109.6           0.000    
      8      5      1      4       109.6           109.6           0.000    
      9      4      1      5       109.6           109.6           0.000    
     10      5      1      5       109.6           109.6           0.000    
     11      4      1      6       109.6           109.6           0.000    
     12      5      1      6       109.6           109.6           0.000    
     13      4      1      7       109.6           109.6           0.000    
     14      5      1      7       109.6           109.6           0.000    
     15      4      1      8       109.6           109.6           0.000    
     16      5      1      8       109.6           109.6           0.000    
     17      4      1      9       109.6           109.6           0.000    
     18      5      1      9       109.6           109.6           0.000    
     19      4      1     10       109.6           109.6           0.000    
     20      5      1     10       109.6           109.6           0.000    
     21      4      1     11       109.6           109.6           0.000    
     22      5      1     11       109.6           109.6           0.000    
     23      4      1     12       109.6           109.6           0.000    
     24      5      1     12       109.6           109.6           0.000    
     25      4      1     13       109.6           109.6           0.000    
     26      5      1     13       109.6           109.6           0.000    
     27      4      1     14       109.6           109.6           0.000    
     28      5      1     14       109.6           109.6           0.000    
     29      4      1     15       109.6           109.6           0.000    
     30      5      1     15       109.6           109.6           0.000    
     31      4      1     16       109.6           109.6           0.000    
     32      5      1     16       109.6           109.6           0.000    
     33      4      1     17       109.6           109.6           0.000    
     34      5      1     17       109.6           109.6           0.000    
     35      4     17     17       109.5           109.4           0.000    
     36      5     17     17       109.5           109.4           0.000    
     37      4     18     17       109.5           109.4           0.000    
     38      5     18     17       109.5           109.4           0.000    
     39      4     18     16       109.5           109.4           0.000    
     40      5     18     16       109.5           109.4           0.000    
     41      4     19     16       109.5           109.4           0.000    
     42      5     19     16       109.5           109.4           0.000    
     43      4     19     15       109.5           109.4           0.000    
     44      5     19     15       109.5           109.4           0.000    
     45      4     20     15       109.5           109.4           0.000    
     46      5     20     15       109.5           109.4           0.000    
     47      4     20     14       109.5           109.4           0.000    
     48      5     20     14       109.5           109.4           0.000    
     49      4     20     13       109.5           109.4           0.000    
     50      5     20     13       109.5           109.4           0.000    
     51      4     20     12       109.5           109.4           0.000    
     52      5     20     12       109.5           109.4           0.000    
     53      4     20     11       109.5           109.4           0.000    
     54      5     20     11       109.5           109.4           0.000    
     55      4     21     11       109.5           109.4           0.000    
     56      5     21     11       109.5           109.4           0.000    
     57      4     21     10       109.4           109.4           0.000    
     58      5     21     10       109.4           109.4           0.000    
     59      4     21      9       109.4           109.4           0.000    
     60      5     21      9       109.4           109.4           0.000    
     61      4     21      8       109.4           109.4           0.000    
     62      5     21      8       109.4           109.4           0.000    
     63      4     21      7       109.4           109.4           0.000    
     64      5     21      7       109.4           109.4           0.000    
     65      4     21      6       109.4           109.4           0.000    
     66      5     21      6       109.4           109.4           0.000    
     67      4     21      5       109.4           109.4           0.000    
     68      5     21      5       109.4           109.4           0.000    
     69      4     22      5       109.4           109.4           0.000    
     70      5     22      5       109.4           109.4           0.000    
     71      4     22      4       109.4           109.4           0.000    
     72      5     22      4       109.4           109.4           0.000    
     73      4     22      3       109.4           109.4           0.000    
     74      5     22      3       109.4           109.4           0.000    
     75      4     22      2       109.4           109.4           0.000    
     76      5     22      2       109.4           109.4           0.000    
     77      4     22      1       109.4           109.4           0.000    
     78      5     22      1       109.4           109.4           0.000    


     78 TIME-VARIANT SPECIFIED-HEAD CELLS

 SOLVING FOR HEAD 


     3 CALLS TO PCG ROUTINE FOR TIME STEP   1 IN STRESS PERIOD   37
    48 TOTAL ITERATIONS

 MAXIMUM HEAD CHANGE FOR EACH ITERATION (1 INDICATES THE FIRST INNER ITERATION):

    HEAD CHANGE    HEAD CHANGE    HEAD CHANGE    HEAD CHANGE    HEAD CHANGE 
   LAYER,ROW,COL  LAYER,ROW,COL  LAYER,ROW,COL  LAYER,ROW,COL  LAYER,ROW,COL
 ---------------------------------------------------------------------------
  1 -0.1072      0  0.7192E-01  0 -0.5943E-01  0  0.4598E-01  0 -0.6927E-01
   (  5, 21,  2)  (  5, 18,  1)  (  5, 16,  2)  (  5, 15,  3)  (  5, 19,  1)
  0 -0.3520E-01  0  0.3422E-01  0  0.2672E-01  0 -0.2133E-01  0  0.1332E-01
   (  5, 17,  4)  (  5, 18,  1)  (  5, 17,  3)  (  5, 18,  1)  (  5, 18,  4)
  0 -0.9568E-02  0 -0.6267E-02  0  0.5659E-02  0 -0.4867E-02  0 -0.3380E-02
   (  5, 17,  3)  (  5, 14,  1)  (  5, 16,  2)  (  5, 12,  5)  (  5, 19,  3)
  0  0.2843E-02  0 -0.2028E-02  0  0.1680E-02  0  0.1825E-02  0  0.7831E-03
   (  5, 18,  2)  (  5, 18,  1)  (  5, 16,  1)  (  5, 19,  3)  (  5, 17,  2)
  0 -0.6649E-03  0  0.4620E-03  0 -0.4304E-03  0  0.3992E-03  0 -0.1913E-03
   (  5, 17,  5)  (  5, 15,  1)  (  5, 19,  2)  (  5, 20,  1)  (  5, 18,  5)
  0 -0.1696E-03  0  0.1150E-03  0  0.1197E-03  0 -0.7061E-04  0  0.5108E-04
   (  5, 20,  3)  (  5, 19,  2)  (  5, 15,  4)  (  5,  6,  1)  (  5,  6,  1)
  1 -0.5869E-04  0 -0.5997E-04  0  0.5180E-04  0  0.4606E-04  0 -0.3454E-04
   (  5,  6,  1)  (  5, 18,  4)  (  5,  6,  1)  (  5, 18,  2)  (  5, 14,  2)
  0  0.3170E-04  0 -0.1932E-04  0 -0.1386E-04  0  0.1412E-04  0 -0.9812E-05
   (  5, 13,  2)  (  5, 17,  4)  (  5, 13,  4)  (  5, 19,  1)  (  5, 20,  2)
  0 -0.5547E-05  0 -0.3725E-05  0 -0.2374E-05  0 -0.2233E-05  0  0.2460E-05
   (  5, 18,  4)  (  5, 17,  1)  (  5, 19,  2)  (  5, 15,  1)  (  5, 17,  2)
  0  0.1157E-05  0  0.9908E-06  1 -0.7099E-06
   (  5, 11,  7)  (  5, 18,  1)  (  5, 18,  1)

 MAXIMUM RESIDUAL FOR EACH ITERATION (1 INDICATES THE FIRST INNER ITERATION):

    RESIDUAL       RESIDUAL       RESIDUAL       RESIDUAL       RESIDUAL    
   LAYER,ROW,COL  LAYER,ROW,COL  LAYER,ROW,COL  LAYER,ROW,COL  LAYER,ROW,COL
 ---------------------------------------------------------------------------
  1  0.3212E-02  0  0.2913E-02  0  0.2646E-02  0  0.2273E-02  0  0.1813E-02
   (  3, 17, 17)  (  3, 17, 17)  (  3, 17, 17)  (  3, 17, 17)  (  3, 17, 17)
  0  0.1364E-02  0  0.9013E-03  0  0.5534E-03  0  0.3440E-03  0  0.2224E-03
   (  3, 17, 17)  (  3, 17, 17)  (  3, 20, 11)  (  3, 20, 11)  (  3, 20, 11)
  0  0.1483E-03  0  0.1196E-03  0  0.1124E-03  0  0.9130E-04  0  0.7129E-04
   (  3, 20, 11)  (  4, 16, 17)  (  4, 16, 17)  (  4, 16, 17)  (  4, 16, 17)
  0  0.6101E-04  0  0.4908E-04  0  0.3547E-04  0  0.2543E-04  0  0.1743E-04
   (  4, 16, 17)  (  4, 16, 17)  (  4, 16, 17)  (  4, 16, 17)  (  4, 16, 17)
  0  0.1275E-04  0  0.1145E-04  0  0.9906E-05  0  0.7139E-05  0  0.4373E-05
   (  4, 16, 17)  (  4, 16, 17)  (  4, 16, 17)  (  4, 16, 17)  (  4, 16, 17)
  0  0.2632E-05  0 -0.2101E-05  0 -0.1321E-05  0 -0.6689E-06  0  0.4318E-06
   (  4, 16, 17)  (  3, 21,  6)  (  3, 21,  6)  (  3, 21,  6)  (  3, 17, 17)
  1  0.5343E-06  0  0.4077E-06  0  0.2726E-06  0  0.2312E-06  0  0.1740E-06
   (  2, 21,  4)  (  2, 21,  4)  (  2, 21,  4)  (  2, 21,  4)  (  4, 16, 17)
  0 -0.1638E-06  0  0.1517E-06  0  0.1324E-06  0  0.1027E-06  0  0.7338E-07
   (  4, 18, 14)  (  4, 20,  2)  (  4, 20,  2)  (  4, 20,  2)  (  4, 20,  2)
  0  0.6058E-07  0  0.4468E-07  0  0.2802E-07  0  0.2571E-07  0  0.1816E-07
   (  4, 20,  2)  (  4, 20,  2)  (  4, 20,  2)  (  4, 20,  2)  (  4, 20,  2)
  0  0.1235E-07  0  0.1042E-07  1  0.1024E-07
   (  4, 16, 17)  (  4, 16, 17)  (  4, 16, 17)



 OUTPUT CONTROL FOR STRESS PERIOD   37   TIME STEP    1
    SAVE HEAD FOR ALL LAYERS
    SAVE DRAWDOWN FOR ALL LAYERS
    SAVE BUDGET
    PRINT BUDGET
 UBDSV1 SAVING "         STORAGE" ON UNIT   9 AT TIME STEP  1, STRESS PERIOD  37
 UBDSV2 SAVING "   CONSTANT HEAD" ON UNIT   9 AT TIME STEP  1, STRESS PERIOD  37
 UBDSV1 SAVING "FLOW RIGHT FACE " ON UNIT   9 AT TIME STEP  1, STRESS PERIOD  37
 UBDSV1 SAVING "FLOW FRONT FACE " ON UNIT   9 AT TIME STEP  1, STRESS PERIOD  37
 UBDSV1 SAVING "FLOW LOWER FACE " ON UNIT   9 AT TIME STEP  1, STRESS PERIOD  37
 UBDSV3 SAVING "        RECHARGE" ON UNIT   9 AT TIME STEP  1, STRESS PERIOD  37

 HEAD WILL BE SAVED ON UNIT   37 AT END OF TIME STEP    1, STRESS PERIOD   37

 DRAWDOWN WILL BE SAVED ON UNIT   38 AT END OF TIME STEP    1, STRESS PERIOD   37
1
  VOLUMETRIC BUDGET FOR ENTIRE MODEL AT END OF TIME STEP    1, STRESS PERIOD  37
  ------------------------------------------------------------------------------

     CUMULATIVE VOLUMES      L**3       RATES FOR THIS TIME STEP      L**3/T
     ------------------                 ------------------------

           IN:                                      IN:
           ---                                      ---
             STORAGE =        8217.1484               STORAGE =       4.6804E-04
       CONSTANT HEAD =       11709.2168         CONSTANT HEAD =       1.7942E-03
            RECHARGE =         447.9069              RECHARGE =       9.7813E-05

            TOTAL IN =       20374.2715              TOTAL IN =       2.3601E-03

          OUT:                                     OUT:
          ----                                     ----
             STORAGE =        3638.8984               STORAGE =       1.5102E-04
       CONSTANT HEAD =       16735.8340         CONSTANT HEAD =       2.2091E-03
            RECHARGE =           0.0000              RECHARGE =           0.0000

           TOTAL OUT =       20374.7324             TOTAL OUT =       2.3601E-03

            IN - OUT =          -0.4609              IN - OUT =      -8.4518E-08

 PERCENT DISCREPANCY =          -0.00     PERCENT DISCREPANCY =          -0.00






         TIME SUMMARY AT END OF TIME STEP    1 IN STRESS PERIOD   37
                    SECONDS     MINUTES      HOURS       DAYS        YEARS
                    -----------------------------------------------------------
   TIME STEP LENGTH  86400.      1440.0      24.000      1.0000     2.73785E-03
 STRESS PERIOD TIME  86400.      1440.0      24.000      1.0000     2.73785E-03
         TOTAL TIME 4.57920E+06  76320.      1272.0      53.000     0.14511    
1
1
                            STRESS PERIOD NO.   38, LENGTH =   86400.00    
                            -----------------------------------------------

                              NUMBER OF TIME STEPS =     1

                               MULTIPLIER FOR DELT =     1.000

                            INITIAL TIME STEP SIZE =   86400.00    

 REUSING RECH FROM LAST STRESS PERIOD

 CHD NO.   LAYER   ROW   COL    START HEAD        END HEAD         IFACE           
 ----------------------------------------------------------------------------------
      1      4      1      1       109.6           109.6           0.000    
      2      5      1      1       109.6           109.6           0.000    
      3      4      1      2       109.6           109.6           0.000    
      4      5      1      2       109.6           109.6           0.000    
      5      4      1      3       109.6           109.6           0.000    
      6      5      1      3       109.6           109.6           0.000    
      7      4      1      4       109.6           109.6           0.000    
      8      5      1      4       109.6           109.6           0.000    
      9      4      1      5       109.6           109.6           0.000    
     10      5      1      5       109.6           109.6           0.000    
     11      4      1      6       109.6           109.6           0.000    
     12      5      1      6       109.6           109.6           0.000    
     13      4      1      7       109.6           109.6           0.000    
     14      5      1      7       109.6           109.6           0.000    
     15      4      1      8       109.6           109.6           0.000    
     16      5      1      8       109.6           109.6           0.000    
     17      4      1      9       109.6           109.6           0.000    
     18      5      1      9       109.6           109.6           0.000    
     19      4      1     10       109.6           109.6           0.000    
     20      5      1     10       109.6           109.6           0.000    
     21      4      1     11       109.6           109.6           0.000    
     22      5      1     11       109.6           109.6           0.000    
     23      4      1     12       109.6           109.6           0.000    
     24      5      1     12       109.6           109.6           0.000    
     25      4      1     13       109.6           109.6           0.000    
     26      5      1     13       109.6           109.6           0.000    
     27      4      1     14       109.6           109.6           0.000    
     28      5      1     14       109.6           109.6           0.000    
     29      4      1     15       109.6           109.6           0.000    
     30      5      1     15       109.6           109.6           0.000    
     31      4      1     16       109.6           109.6           0.000    
     32      5      1     16       109.6           109.6           0.000    
     33      4      1     17       109.6           109.6           0.000    
     34      5      1     17       109.6           109.6           0.000    
     35      4     17     17       109.4           109.4           0.000    
     36      5     17     17       109.4           109.4           0.000    
     37      4     18     17       109.4           109.4           0.000    
     38      5     18     17       109.4           109.4           0.000    
     39      4     18     16       109.4           109.4           0.000    
     40      5     18     16       109.4           109.4           0.000    
     41      4     19     16       109.4           109.4           0.000    
     42      5     19     16       109.4           109.4           0.000    
     43      4     19     15       109.4           109.4           0.000    
     44      5     19     15       109.4           109.4           0.000    
     45      4     20     15       109.4           109.4           0.000    
     46      5     20     15       109.4           109.4           0.000    
     47      4     20     14       109.4           109.4           0.000    
     48      5     20     14       109.4           109.4           0.000    
     49      4     20     13       109.4           109.4           0.000    
     50      5     20     13       109.4           109.4           0.000    
     51      4     20     12       109.4           109.4           0.000    
     52      5     20     12       109.4           109.4           0.000    
     53      4     20     11       109.4           109.4           0.000    
     54      5     20     11       109.4           109.4           0.000    
     55      4     21     11       109.4           109.4           0.000    
     56      5     21     11       109.4           109.4           0.000    
     57      4     21     10       109.4           109.3           0.000    
     58      5     21     10       109.4           109.3           0.000    
     59      4     21      9       109.4           109.3           0.000    
     60      5     21      9       109.4           109.3           0.000    
     61      4     21      8       109.4           109.3           0.000    
     62      5     21      8       109.4           109.3           0.000    
     63      4     21      7       109.4           109.3           0.000    
     64      5     21      7       109.4           109.3           0.000    
     65      4     21      6       109.4           109.3           0.000    
     66      5     21      6       109.4           109.3           0.000    
     67      4     21      5       109.4           109.3           0.000    
     68      5     21      5       109.4           109.3           0.000    
     69      4     22      5       109.4           109.3           0.000    
     70      5     22      5       109.4           109.3           0.000    
     71      4     22      4       109.4           109.3           0.000    
     72      5     22      4       109.4           109.3           0.000    
     73      4     22      3       109.4           109.3           0.000    
     74      5     22      3       109.4           109.3           0.000    
     75      4     22      2       109.4           109.3           0.000    
     76      5     22      2       109.4           109.3           0.000    
     77      4     22      1       109.4           109.3           0.000    
     78      5     22      1       109.4           109.3           0.000    


     78 TIME-VARIANT SPECIFIED-HEAD CELLS

 SOLVING FOR HEAD 


     3 CALLS TO PCG ROUTINE FOR TIME STEP   1 IN STRESS PERIOD   38
    49 TOTAL ITERATIONS

 MAXIMUM HEAD CHANGE FOR EACH ITERATION (1 INDICATES THE FIRST INNER ITERATION):

    HEAD CHANGE    HEAD CHANGE    HEAD CHANGE    HEAD CHANGE    HEAD CHANGE 
   LAYER,ROW,COL  LAYER,ROW,COL  LAYER,ROW,COL  LAYER,ROW,COL  LAYER,ROW,COL
 ---------------------------------------------------------------------------
  1 -0.9876E-01  0  0.6480E-01  0 -0.5632E-01  0 -0.4387E-01  0 -0.6133E-01
   (  5, 21,  2)  (  5, 17,  1)  (  5, 16,  2)  (  5, 17,  1)  (  5, 19,  1)
  0 -0.3459E-01  0  0.3097E-01  0  0.2332E-01  0 -0.2034E-01  0  0.1224E-01
   (  5, 20,  1)  (  5, 18,  1)  (  5, 17,  3)  (  5, 18,  1)  (  5, 18,  4)
  0 -0.1047E-01  0  0.6598E-02  0 -0.5907E-02  0 -0.4399E-02  0 -0.3112E-02
   (  5, 17,  3)  (  5, 16,  2)  (  5, 14,  1)  (  5, 12,  5)  (  5, 19,  3)
  0  0.2408E-02  0 -0.1778E-02  0  0.1507E-02  0  0.1672E-02  0  0.7073E-03
   (  5, 18,  2)  (  5, 18,  1)  (  5, 16,  1)  (  5, 19,  3)  (  5, 17,  2)
  0 -0.5722E-03  0  0.5272E-03  0  0.3101E-03  0 -0.2254E-03  0 -0.1965E-03
   (  5, 16,  1)  (  5, 17,  2)  (  5, 20,  1)  (  5, 19,  1)  (  5, 18,  5)
  0 -0.1435E-03  0 -0.1194E-03  0 -0.9091E-04  0 -0.6501E-04  0  0.3879E-04
   (  5, 20,  3)  (  5, 14,  2)  (  5, 18,  1)  (  5,  6,  1)  (  5, 15,  1)
  1 -0.4357E-04  0 -0.5697E-04  0  0.8183E-04  0 -0.5809E-04  0  0.4260E-04
   (  5, 15,  1)  (  5, 13,  5)  (  5, 12,  4)  (  5, 11,  1)  (  5, 13,  3)
  0 -0.3336E-04  0 -0.4350E-04  0  0.1844E-04  0 -0.1173E-04  0 -0.7810E-05
   (  5, 14,  2)  (  5, 19,  1)  (  5, 20,  1)  (  5, 20,  2)  (  5, 18,  2)
  0  0.5661E-05  0 -0.4956E-05  0  0.3463E-05  0 -0.3091E-05  0 -0.2353E-05
   (  5, 16,  4)  (  5, 20,  1)  (  5, 16,  1)  (  5, 19,  2)  (  5, 17,  5)
  0 -0.2169E-05  0  0.1580E-05  0 -0.8971E-06  1  0.6247E-06
   (  5, 20,  1)  (  5, 17,  1)  (  5, 19,  1)  (  5, 19,  2)

 MAXIMUM RESIDUAL FOR EACH ITERATION (1 INDICATES THE FIRST INNER ITERATION):

    RESIDUAL       RESIDUAL       RESIDUAL       RESIDUAL       RESIDUAL    
   LAYER,ROW,COL  LAYER,ROW,COL  LAYER,ROW,COL  LAYER,ROW,COL  LAYER,ROW,COL
 ---------------------------------------------------------------------------
  1  0.2845E-02  0  0.2573E-02  0  0.2324E-02  0  0.1989E-02  0  0.1594E-02
   (  3, 17, 17)  (  3, 17, 17)  (  3, 17, 17)  (  3, 17, 17)  (  3, 17, 17)
  0  0.1205E-02  0  0.8090E-03  0  0.4909E-03  0  0.2970E-03  0  0.1895E-03
   (  3, 17, 17)  (  3, 17, 17)  (  3, 17, 17)  (  3, 20, 11)  (  3, 20, 11)
  0  0.1236E-03  0  0.1130E-03  0  0.9554E-04  0  0.7661E-04  0  0.6057E-04
   (  3, 20, 11)  (  4, 16, 17)  (  4, 16, 17)  (  4, 16, 17)  (  4, 16, 17)
  0  0.5291E-04  0  0.4177E-04  0  0.3052E-04  0  0.2199E-04  0  0.1517E-04
   (  4, 16, 17)  (  4, 16, 17)  (  4, 16, 17)  (  4, 16, 17)  (  4, 16, 17)
  0  0.1343E-04  0  0.1019E-04  0  0.6938E-05  0  0.5932E-05  0 -0.3841E-05
   (  4, 16, 17)  (  4, 16, 17)  (  4, 16, 17)  (  4, 16, 17)  (  3, 21,  6)
  0 -0.2395E-05  0 -0.1646E-05  0 -0.1203E-05  0 -0.5974E-06  0  0.4311E-06
   (  3, 21,  6)  (  3, 21,  6)  (  3, 21,  6)  (  3, 21,  6)  (  3, 17, 17)
  1 -0.5642E-06  0  0.3881E-06  0  0.2674E-06  0 -0.2240E-06  0 -0.2456E-06
   (  3, 21,  5)  (  2, 21,  4)  (  2, 21,  4)  (  4, 18, 14)  (  4, 18, 14)
  0 -0.2330E-06  0 -0.2074E-06  0  0.1577E-06  0  0.1017E-06  0  0.6744E-07
   (  4, 18, 14)  (  4, 18, 14)  (  4, 20,  2)  (  4, 20,  2)  (  4, 20,  2)
  0  0.4794E-07  0  0.4034E-07  0  0.3413E-07  0  0.2804E-07  0  0.1797E-07
   (  4, 20,  2)  (  4, 20,  2)  (  4, 20,  2)  (  4, 20,  2)  (  4, 16, 17)
  0  0.1503E-07  0  0.1236E-07  0  0.1121E-07  1  0.1080E-07
   (  4, 16, 17)  (  4, 16, 17)  (  4, 16, 17)  (  4, 16, 17)



 OUTPUT CONTROL FOR STRESS PERIOD   38   TIME STEP    1
    SAVE HEAD FOR ALL LAYERS
    SAVE DRAWDOWN FOR ALL LAYERS
    SAVE BUDGET
    PRINT BUDGET
 UBDSV1 SAVING "         STORAGE" ON UNIT   9 AT TIME STEP  1, STRESS PERIOD  38
 UBDSV2 SAVING "   CONSTANT HEAD" ON UNIT   9 AT TIME STEP  1, STRESS PERIOD  38
 UBDSV1 SAVING "FLOW RIGHT FACE " ON UNIT   9 AT TIME STEP  1, STRESS PERIOD  38
 UBDSV1 SAVING "FLOW FRONT FACE " ON UNIT   9 AT TIME STEP  1, STRESS PERIOD  38
 UBDSV1 SAVING "FLOW LOWER FACE " ON UNIT   9 AT TIME STEP  1, STRESS PERIOD  38
 UBDSV3 SAVING "        RECHARGE" ON UNIT   9 AT TIME STEP  1, STRESS PERIOD  38

 HEAD WILL BE SAVED ON UNIT   37 AT END OF TIME STEP    1, STRESS PERIOD   38

 DRAWDOWN WILL BE SAVED ON UNIT   38 AT END OF TIME STEP    1, STRESS PERIOD   38
1
  VOLUMETRIC BUDGET FOR ENTIRE MODEL AT END OF TIME STEP    1, STRESS PERIOD  38
  ------------------------------------------------------------------------------

     CUMULATIVE VOLUMES      L**3       RATES FOR THIS TIME STEP      L**3/T
     ------------------                 ------------------------

           IN:                                      IN:
           ---                                      ---
             STORAGE =        8304.2314               STORAGE =       1.0079E-03
       CONSTANT HEAD =       11859.9629         CONSTANT HEAD =       1.7448E-03
            RECHARGE =         456.3580              RECHARGE =       9.7813E-05

            TOTAL IN =       20620.5527              TOTAL IN =       2.8505E-03

          OUT:                                     OUT:
          ----                                     ----
             STORAGE =        3638.8984               STORAGE =           0.0000
       CONSTANT HEAD =       16982.1230         CONSTANT HEAD =       2.8506E-03
            RECHARGE =           0.0000              RECHARGE =           0.0000

           TOTAL OUT =       20621.0215             TOTAL OUT =       2.8506E-03

            IN - OUT =          -0.4688              IN - OUT =      -9.7556E-08

 PERCENT DISCREPANCY =          -0.00     PERCENT DISCREPANCY =          -0.00






         TIME SUMMARY AT END OF TIME STEP    1 IN STRESS PERIOD   38
                    SECONDS     MINUTES      HOURS       DAYS        YEARS
                    -----------------------------------------------------------
   TIME STEP LENGTH  86400.      1440.0      24.000      1.0000     2.73785E-03
 STRESS PERIOD TIME  86400.      1440.0      24.000      1.0000     2.73785E-03
         TOTAL TIME 4.66560E+06  77760.      1296.0      54.000     0.14784    
1
1
                            STRESS PERIOD NO.   39, LENGTH =   172800.0    
                            -----------------------------------------------

                              NUMBER OF TIME STEPS =     2

                               MULTIPLIER FOR DELT =     1.000

                            INITIAL TIME STEP SIZE =   86400.00    

 REUSING RECH FROM LAST STRESS PERIOD

 CHD NO.   LAYER   ROW   COL    START HEAD        END HEAD         IFACE           
 ----------------------------------------------------------------------------------
      1      4      1      1       109.6           109.5           0.000    
      2      5      1      1       109.6           109.5           0.000    
      3      4      1      2       109.6           109.5           0.000    
      4      5      1      2       109.6           109.5           0.000    
      5      4      1      3       109.6           109.5           0.000    
      6      5      1      3       109.6           109.5           0.000    
      7      4      1      4       109.6           109.5           0.000    
      8      5      1      4       109.6           109.5           0.000    
      9      4      1      5       109.6           109.5           0.000    
     10      5      1      5       109.6           109.5           0.000    
     11      4      1      6       109.6           109.5           0.000    
     12      5      1      6       109.6           109.5           0.000    
     13      4      1      7       109.6           109.5           0.000    
     14      5      1      7       109.6           109.5           0.000    
     15      4      1      8       109.6           109.5           0.000    
     16      5      1      8       109.6           109.5           0.000    
     17      4      1      9       109.6           109.5           0.000    
     18      5      1      9       109.6           109.5           0.000    
     19      4      1     10       109.6           109.5           0.000    
     20      5      1     10       109.6           109.5           0.000    
     21      4      1     11       109.6           109.5           0.000    
     22      5      1     11       109.6           109.5           0.000    
     23      4      1     12       109.6           109.5           0.000    
     24      5      1     12       109.6           109.5           0.000    
     25      4      1     13       109.6           109.5           0.000    
     26      5      1     13       109.6           109.5           0.000    
     27      4      1     14       109.6           109.5           0.000    
     28      5      1     14       109.6           109.5           0.000    
     29      4      1     15       109.6           109.5           0.000    
     30      5      1     15       109.6           109.5           0.000    
     31      4      1     16       109.6           109.5           0.000    
     32      5      1     16       109.6           109.5           0.000    
     33      4      1     17       109.6           109.5           0.000    
     34      5      1     17       109.6           109.5           0.000    
     35      4     17     17       109.4           109.3           0.000    
     36      5     17     17       109.4           109.3           0.000    
     37      4     18     17       109.4           109.3           0.000    
     38      5     18     17       109.4           109.3           0.000    
     39      4     18     16       109.4           109.3           0.000    
     40      5     18     16       109.4           109.3           0.000    
     41      4     19     16       109.4           109.3           0.000    
     42      5     19     16       109.4           109.3           0.000    
     43      4     19     15       109.4           109.2           0.000    
     44      5     19     15       109.4           109.2           0.000    
     45      4     20     15       109.4           109.2           0.000    
     46      5     20     15       109.4           109.2           0.000    
     47      4     20     14       109.4           109.2           0.000    
     48      5     20     14       109.4           109.2           0.000    
     49      4     20     13       109.4           109.2           0.000    
     50      5     20     13       109.4           109.2           0.000    
     51      4     20     12       109.4           109.2           0.000    
     52      5     20     12       109.4           109.2           0.000    
     53      4     20     11       109.4           109.2           0.000    
     54      5     20     11       109.4           109.2           0.000    
     55      4     21     11       109.4           109.2           0.000    
     56      5     21     11       109.4           109.2           0.000    
     57      4     21     10       109.3           109.2           0.000    
     58      5     21     10       109.3           109.2           0.000    
     59      4     21      9       109.3           109.2           0.000    
     60      5     21      9       109.3           109.2           0.000    
     61      4     21      8       109.3           109.2           0.000    
     62      5     21      8       109.3           109.2           0.000    
     63      4     21      7       109.3           109.2           0.000    
     64      5     21      7       109.3           109.2           0.000    
     65      4     21      6       109.3           109.2           0.000    
     66      5     21      6       109.3           109.2           0.000    
     67      4     21      5       109.3           109.2           0.000    
     68      5     21      5       109.3           109.2           0.000    
     69      4     22      5       109.3           109.2           0.000    
     70      5     22      5       109.3           109.2           0.000    
     71      4     22      4       109.3           109.2           0.000    
     72      5     22      4       109.3           109.2           0.000    
     73      4     22      3       109.3           109.2           0.000    
     74      5     22      3       109.3           109.2           0.000    
     75      4     22      2       109.3           109.2           0.000    
     76      5     22      2       109.3           109.2           0.000    
     77      4     22      1       109.3           109.2           0.000    
     78      5     22      1       109.3           109.2           0.000    


     78 TIME-VARIANT SPECIFIED-HEAD CELLS

 SOLVING FOR HEAD 


     4 CALLS TO PCG ROUTINE FOR TIME STEP   1 IN STRESS PERIOD   39
    61 TOTAL ITERATIONS

 MAXIMUM HEAD CHANGE FOR EACH ITERATION (1 INDICATES THE FIRST INNER ITERATION):

    HEAD CHANGE    HEAD CHANGE    HEAD CHANGE    HEAD CHANGE    HEAD CHANGE 
   LAYER,ROW,COL  LAYER,ROW,COL  LAYER,ROW,COL  LAYER,ROW,COL  LAYER,ROW,COL
 ---------------------------------------------------------------------------
  1 -0.1219      0  0.7864E-01  0 -0.6741E-01  0 -0.5363E-01  0 -0.7353E-01
   (  5, 21,  2)  (  5, 17,  1)  (  5, 16,  2)  (  5, 17,  1)  (  5, 19,  1)
  0 -0.4095E-01  0  0.3702E-01  0 -0.2703E-01  0 -0.2407E-01  0  0.1477E-01
   (  5, 20,  1)  (  5, 18,  1)  (  5, 17,  1)  (  5, 18,  1)  (  5, 18,  4)
  0 -0.1280E-01  0  0.7321E-02  0 -0.6796E-02  0 -0.5168E-02  0 -0.3149E-02
   (  5, 17,  3)  (  5, 16,  2)  (  5, 14,  1)  (  5, 12,  5)  (  5, 19,  3)
  0 -0.2298E-02  0  0.1948E-02  0  0.1432E-02  0  0.2012E-02  0  0.1015E-02
   (  5, 18,  1)  (  5, 18,  2)  (  5, 16,  3)  (  5, 19,  3)  (  5, 17,  2)
  0 -0.5572E-03  0 -0.6102E-03  0 -0.5325E-03  0  0.3169E-03  0 -0.2354E-03
   (  5, 16,  1)  (  5, 17,  5)  (  5, 19,  2)  (  5, 19,  1)  (  5, 18,  1)
  0 -0.1610E-03  0 -0.1434E-03  0 -0.7032E-04  0 -0.9135E-04  0  0.8689E-04
   (  5, 20,  3)  (  5, 14,  2)  (  5, 19,  1)  (  5, 16,  1)  (  5, 18,  1)
  1  0.4613E-03  0 -0.2870E-03  0  0.4291E-03  0  0.3946E-03  0  0.4134E-03
   (  5, 19,  1)  (  5, 15,  1)  (  5, 14,  2)  (  5, 16,  1)  (  5, 18,  1)
  0  0.1704E-03  0 -0.1029E-03  0  0.1011E-03  0 -0.6727E-04  0  0.6522E-04
   (  5, 19,  1)  (  5, 21,  4)  (  5, 15,  5)  (  5, 13,  5)  (  5, 16,  3)
  0  0.3228E-04  0  0.2330E-04  0  0.1684E-04  0 -0.1974E-04  0 -0.1156E-04
   (  5, 21,  4)  (  5, 21,  4)  (  5, 14,  1)  (  5, 16,  3)  (  5, 19,  1)
  0 -0.1049E-04  0 -0.6190E-05  0 -0.4663E-05  0  0.4464E-05  0  0.2907E-05
   (  5, 17,  3)  (  5, 20,  1)  (  5, 17,  1)  (  5, 15,  1)  (  5, 18,  3)
  0  0.2026E-05  0  0.1447E-05  0  0.1196E-05  0 -0.7471E-06  1  0.1256E-05
   (  5, 20,  1)  (  5, 19,  3)  (  5, 14,  1)  (  5, 14,  2)  (  5, 16,  2)
  0  0.1072E-05  0  0.1404E-05  0  0.1467E-05  0  0.1464E-05  0  0.7403E-06
   (  5, 20,  3)  (  5, 13,  2)  (  5, 15,  1)  (  5, 17,  1)  (  5, 17,  4)
  1 -0.5082E-06
   (  5, 16,  4)

 MAXIMUM RESIDUAL FOR EACH ITERATION (1 INDICATES THE FIRST INNER ITERATION):

    RESIDUAL       RESIDUAL       RESIDUAL       RESIDUAL       RESIDUAL    
   LAYER,ROW,COL  LAYER,ROW,COL  LAYER,ROW,COL  LAYER,ROW,COL  LAYER,ROW,COL
 ---------------------------------------------------------------------------
  1  0.3285E-02  0  0.2959E-02  0  0.2663E-02  0  0.2261E-02  0  0.1791E-02
   (  3, 17, 17)  (  3, 17, 17)  (  3, 17, 17)  (  3, 17, 17)  (  3, 17, 17)
  0  0.1341E-02  0  0.8953E-03  0  0.5336E-03  0  0.3119E-03  0  0.1943E-03
   (  3, 17, 17)  (  3, 17, 17)  (  3, 17, 17)  (  3, 20, 11)  (  3, 20, 11)
  0  0.1388E-03  0  0.1299E-03  0  0.1084E-03  0  0.8727E-04  0  0.6796E-04
   (  4, 16, 17)  (  4, 16, 17)  (  4, 16, 17)  (  4, 16, 17)  (  4, 16, 17)
  0  0.5175E-04  0  0.4612E-04  0  0.3389E-04  0  0.2423E-04  0  0.1691E-04
   (  4, 16, 17)  (  4, 16, 17)  (  4, 16, 17)  (  4, 16, 17)  (  4, 16, 17)
  0  0.1579E-04  0  0.1093E-04  0 -0.8109E-05  0 -0.6901E-05  0 -0.4492E-05
   (  4, 16, 17)  (  4, 16, 17)  (  3, 21,  6)  (  3, 21,  6)  (  3, 21,  6)
  0 -0.2756E-05  0 -0.1628E-05  0 -0.1354E-05  0 -0.9337E-06  0 -0.6110E-06
   (  3, 21,  6)  (  3, 21,  6)  (  3, 21,  6)  (  3, 21,  6)  (  3, 21,  6)
  1 -0.6225E-05  0 -0.5743E-05  0 -0.4740E-05  0 -0.3228E-05  0  0.2140E-05
   (  3, 20,  1)  (  3, 20,  1)  (  3, 20,  1)  (  3, 20,  1)  (  4, 20,  2)
  0  0.1876E-05  0  0.1518E-05  0  0.1225E-05  0  0.9153E-06  0  0.5811E-06
   (  4, 20,  2)  (  4, 20,  2)  (  4, 20,  2)  (  4, 20,  2)  (  4, 20,  2)
  0  0.4672E-06  0  0.3730E-06  0  0.3251E-06  0  0.2426E-06  0  0.1757E-06
   (  4, 21,  2)  (  4, 21,  2)  (  4, 21,  2)  (  4, 20,  1)  (  4, 20,  1)
  0  0.1167E-06  0  0.6795E-07  0 -0.5021E-07  0 -0.4202E-07  0 -0.3224E-07
   (  4, 20,  1)  (  4, 20,  1)  (  4, 20,  2)  (  4, 20,  2)  (  4, 19,  1)
  0 -0.1858E-07  0  0.1502E-07  0  0.1245E-07  0  0.1117E-07  1 -0.5451E-07
   (  4, 19,  1)  (  4, 19,  2)  (  4, 19,  2)  (  4, 19,  2)  (  3, 16,  2)
  0 -0.4912E-07  0 -0.3884E-07  0 -0.2478E-07  0 -0.1397E-07  0  0.1205E-07
   (  3, 16,  2)  (  3, 16,  2)  (  3, 16,  2)  (  3, 16,  2)  (  4, 16,  2)
  1  0.1047E-07
   (  4, 16,  2)



 OUTPUT CONTROL FOR STRESS PERIOD   39   TIME STEP    1
    SAVE HEAD FOR ALL LAYERS
    SAVE DRAWDOWN FOR ALL LAYERS
    SAVE BUDGET
    PRINT BUDGET
 UBDSV1 SAVING "         STORAGE" ON UNIT   9 AT TIME STEP  1, STRESS PERIOD  39
 UBDSV2 SAVING "   CONSTANT HEAD" ON UNIT   9 AT TIME STEP  1, STRESS PERIOD  39
 UBDSV1 SAVING "FLOW RIGHT FACE " ON UNIT   9 AT TIME STEP  1, STRESS PERIOD  39
 UBDSV1 SAVING "FLOW FRONT FACE " ON UNIT   9 AT TIME STEP  1, STRESS PERIOD  39
 UBDSV1 SAVING "FLOW LOWER FACE " ON UNIT   9 AT TIME STEP  1, STRESS PERIOD  39
 UBDSV3 SAVING "        RECHARGE" ON UNIT   9 AT TIME STEP  1, STRESS PERIOD  39

 HEAD WILL BE SAVED ON UNIT   37 AT END OF TIME STEP    1, STRESS PERIOD   39

 DRAWDOWN WILL BE SAVED ON UNIT   38 AT END OF TIME STEP    1, STRESS PERIOD   39
1
  VOLUMETRIC BUDGET FOR ENTIRE MODEL AT END OF TIME STEP    1, STRESS PERIOD  39
  ------------------------------------------------------------------------------

     CUMULATIVE VOLUMES      L**3       RATES FOR THIS TIME STEP      L**3/T
     ------------------                 ------------------------

           IN:                                      IN:
           ---                                      ---
             STORAGE =        8443.2363               STORAGE =       1.6089E-03
       CONSTANT HEAD =       12005.8799         CONSTANT HEAD =       1.6888E-03
            RECHARGE =         464.8091              RECHARGE =       9.7813E-05

            TOTAL IN =       20913.9258              TOTAL IN =       3.3955E-03

          OUT:                                     OUT:
          ----                                     ----
             STORAGE =        3638.8984               STORAGE =           0.0000
       CONSTANT HEAD =       17275.5039         CONSTANT HEAD =       3.3956E-03
            RECHARGE =           0.0000              RECHARGE =           0.0000

           TOTAL OUT =       20914.4023             TOTAL OUT =       3.3956E-03

            IN - OUT =          -0.4766              IN - OUT =      -1.0477E-07

 PERCENT DISCREPANCY =          -0.00     PERCENT DISCREPANCY =          -0.00






         TIME SUMMARY AT END OF TIME STEP    1 IN STRESS PERIOD   39
                    SECONDS     MINUTES      HOURS       DAYS        YEARS
                    -----------------------------------------------------------
   TIME STEP LENGTH  86400.      1440.0      24.000      1.0000     2.73785E-03
 STRESS PERIOD TIME  86400.      1440.0      24.000      1.0000     2.73785E-03
         TOTAL TIME 4.75200E+06  79200.      1320.0      55.000     0.15058    
1

 SOLVING FOR HEAD 
     4 CALLS TO PCG ROUTINE FOR TIME STEP   2 IN STRESS PERIOD   39
    59 TOTAL ITERATIONS

 MAXIMUM HEAD CHANGE FOR EACH ITERATION (1 INDICATES THE FIRST INNER ITERATION):

    HEAD CHANGE    HEAD CHANGE    HEAD CHANGE    HEAD CHANGE    HEAD CHANGE 
   LAYER,ROW,COL  LAYER,ROW,COL  LAYER,ROW,COL  LAYER,ROW,COL  LAYER,ROW,COL
 ---------------------------------------------------------------------------
  1 -0.1628      0  0.9389E-01  0 -0.5651E-01  0 -0.6324E-01  0  0.5641E-01
   (  5, 21,  2)  (  5, 20,  1)  (  5, 17,  1)  (  5, 19,  1)  (  5, 15,  1)
  0  0.4865E-01  0  0.2592E-01  0 -0.2331E-01  0 -0.1990E-01  0 -0.1297E-01
   (  5, 18,  1)  (  5, 16,  4)  (  5, 17,  1)  (  5, 18,  1)  (  5, 19,  1)
  0  0.7582E-02  0 -0.5466E-02  0  0.3933E-02  0  0.3386E-02  0 -0.3644E-02
   (  5, 18,  1)  (  5, 15,  4)  (  5, 17,  3)  (  5, 14,  1)  (  5, 16,  3)
  0  0.2299E-02  0 -0.1262E-02  0 -0.1017E-02  0  0.7785E-03  0 -0.8507E-03
   (  5, 18,  3)  (  5, 17,  3)  (  5, 16,  1)  (  5, 19,  3)  (  5, 18,  3)
  0  0.3548E-03  0 -0.3455E-03  0  0.1954E-03  0 -0.2404E-03  0  0.1656E-03
   (  5, 19,  4)  (  5, 19,  3)  (  5, 15,  2)  (  5, 15,  1)  (  5, 17,  5)
  0 -0.8494E-04  0 -0.6781E-04  0  0.4479E-04  0 -0.3400E-04  0  0.1820E-04
   (  5, 17,  4)  (  5, 17,  1)  (  5, 18,  1)  (  5,  7,  1)  (  5, 14,  4)
  1  0.1039E-02  0  0.6044E-03  0  0.1042E-02  0  0.4132E-03  0  0.3988E-03
   (  5, 16,  2)  (  5, 17,  5)  (  5, 13,  1)  (  5, 16,  1)  (  5, 11,  2)
  0  0.2966E-03  0 -0.2167E-03  0  0.1945E-03  0 -0.1035E-03  0  0.9606E-04
   (  5, 20,  1)  (  5, 19,  1)  (  5, 18,  1)  (  5, 17,  1)  (  5, 12,  5)
  0  0.4849E-04  0  0.2963E-04  0  0.2646E-04  0 -0.1846E-04  0  0.1252E-04
   (  5, 16,  5)  (  5, 10,  4)  (  5, 20,  1)  (  5, 19,  1)  (  5, 15,  5)
  0  0.6883E-05  0  0.6312E-05  0  0.3799E-05  0  0.3446E-05  0 -0.2051E-05
   (  5, 12,  3)  (  5, 14,  2)  (  5, 18,  4)  (  5, 12,  1)  (  5, 13,  2)
  0  0.1446E-05  0 -0.8223E-06  1 -0.1629E-05  0  0.1124E-05  0 -0.1641E-05
   (  5,  8,  1)  (  5,  6,  1)  (  5, 12,  2)  (  5, 12,  1)  (  5, 10,  1)
  0  0.2004E-05  0 -0.1232E-05  0  0.7649E-06  1 -0.4236E-06
   (  5, 18,  1)  (  5, 16,  1)  (  5, 19,  3)  (  5, 15,  2)

 MAXIMUM RESIDUAL FOR EACH ITERATION (1 INDICATES THE FIRST INNER ITERATION):

    RESIDUAL       RESIDUAL       RESIDUAL       RESIDUAL       RESIDUAL    
   LAYER,ROW,COL  LAYER,ROW,COL  LAYER,ROW,COL  LAYER,ROW,COL  LAYER,ROW,COL
 ---------------------------------------------------------------------------
  1  0.2977E-02  0  0.2522E-02  0  0.2109E-02  0  0.1721E-02  0  0.1402E-02
   (  3, 17, 17)  (  3, 17, 17)  (  3, 17, 17)  (  3, 17, 17)  (  3, 17, 17)
  0  0.9762E-03  0  0.6506E-03  0  0.3809E-03  0  0.2157E-03  0  0.1368E-03
   (  3, 17, 17)  (  3, 17, 17)  (  3, 20, 11)  (  3, 20, 11)  (  4, 16, 17)
  0  0.1121E-03  0  0.9089E-04  0  0.7196E-04  0  0.6486E-04  0  0.5343E-04
   (  4, 16, 17)  (  4, 16, 17)  (  4, 16, 17)  (  4, 16, 17)  (  4, 16, 17)
  0  0.3861E-04  0  0.2642E-04  0  0.2173E-04  0  0.1702E-04  0  0.1158E-04
   (  4, 16, 17)  (  4, 16, 17)  (  4, 16, 17)  (  4, 16, 17)  (  4, 16, 17)
  0 -0.8173E-05  0 -0.5558E-05  0 -0.4861E-05  0 -0.3352E-05  0 -0.1843E-05
   (  3, 21,  6)  (  3, 21,  6)  (  3, 21,  6)  (  3, 21,  6)  (  3, 21,  6)
  0 -0.1058E-05  0 -0.7645E-06  0 -0.4026E-06  0  0.2965E-06  0  0.2236E-06
   (  3, 21,  6)  (  3, 21,  6)  (  3, 21,  5)  (  5, 15, 17)  (  5, 15, 17)
  1 -0.7057E-05  0 -0.6112E-05  0 -0.4115E-05  0 -0.2844E-05  0  0.2518E-05
   (  3, 16,  1)  (  3, 16,  1)  (  3, 16,  1)  (  3, 16,  1)  (  4, 16,  2)
  0  0.2446E-05  0 -0.1544E-05  0 -0.1201E-05  0  0.1019E-05  0  0.6963E-06
   (  4, 16,  2)  (  4, 21,  1)  (  4, 21,  1)  (  4, 20,  2)  (  4, 21,  2)
  0  0.6086E-06  0  0.4861E-06  0  0.3130E-06  0  0.2072E-06  0  0.1102E-06
   (  4, 21,  2)  (  4, 21,  2)  (  4, 21,  2)  (  4, 21,  2)  (  4, 21,  2)
  0 -0.8566E-07  0 -0.6857E-07  0 -0.4980E-07  0 -0.3651E-07  0 -0.2298E-07
   (  4, 20,  2)  (  4, 20,  2)  (  4, 20,  2)  (  4, 20,  2)  (  4, 20,  2)
  0 -0.1479E-07  0  0.9814E-08  1  0.1285E-07  0  0.1035E-07  0  0.6543E-08
   (  4, 21,  2)  (  4, 20,  3)  (  3, 15,  5)  (  3, 15,  5)  (  3, 15,  5)
  0  0.7043E-08  0  0.7652E-08  0  0.6019E-08  1  0.5443E-08
   (  4, 21,  2)  (  4, 21,  2)  (  4, 21,  2)  (  4, 21,  2)



 OUTPUT CONTROL FOR STRESS PERIOD   39   TIME STEP    2
    SAVE HEAD FOR ALL LAYERS
    SAVE DRAWDOWN FOR ALL LAYERS
    SAVE BUDGET
    PRINT BUDGET
 UBDSV1 SAVING "         STORAGE" ON UNIT   9 AT TIME STEP  2, STRESS PERIOD  39
 UBDSV2 SAVING "   CONSTANT HEAD" ON UNIT   9 AT TIME STEP  2, STRESS PERIOD  39
 UBDSV1 SAVING "FLOW RIGHT FACE " ON UNIT   9 AT TIME STEP  2, STRESS PERIOD  39
 UBDSV1 SAVING "FLOW FRONT FACE " ON UNIT   9 AT TIME STEP  2, STRESS PERIOD  39
 UBDSV1 SAVING "FLOW LOWER FACE " ON UNIT   9 AT TIME STEP  2, STRESS PERIOD  39
 UBDSV3 SAVING "        RECHARGE" ON UNIT   9 AT TIME STEP  2, STRESS PERIOD  39

 HEAD WILL BE SAVED ON UNIT   37 AT END OF TIME STEP    2, STRESS PERIOD   39

 DRAWDOWN WILL BE SAVED ON UNIT   38 AT END OF TIME STEP    2, STRESS PERIOD   39
1
  VOLUMETRIC BUDGET FOR ENTIRE MODEL AT END OF TIME STEP    2, STRESS PERIOD  39
  ------------------------------------------------------------------------------

     CUMULATIVE VOLUMES      L**3       RATES FOR THIS TIME STEP      L**3/T
     ------------------                 ------------------------

           IN:                                      IN:
           ---                                      ---
             STORAGE =        8603.4473               STORAGE =       1.8543E-03
       CONSTANT HEAD =       12163.0762         CONSTANT HEAD =       1.8194E-03
            RECHARGE =         473.2601              RECHARGE =       9.7813E-05

            TOTAL IN =       21239.7832              TOTAL IN =       3.7715E-03

          OUT:                                     OUT:
          ----                                     ----
             STORAGE =        3638.8984               STORAGE =           0.0000
       CONSTANT HEAD =       17601.3711         CONSTANT HEAD =       3.7716E-03
            RECHARGE =           0.0000              RECHARGE =           0.0000

           TOTAL OUT =       21240.2695             TOTAL OUT =       3.7716E-03

            IN - OUT =          -0.4863              IN - OUT =      -1.1036E-07

 PERCENT DISCREPANCY =          -0.00     PERCENT DISCREPANCY =          -0.00






         TIME SUMMARY AT END OF TIME STEP    2 IN STRESS PERIOD   39
                    SECONDS     MINUTES      HOURS       DAYS        YEARS
                    -----------------------------------------------------------
   TIME STEP LENGTH  86400.      1440.0      24.000      1.0000     2.73785E-03
 STRESS PERIOD TIME 1.72800E+05  2880.0      48.000      2.0000     5.47570E-03
         TOTAL TIME 4.83840E+06  80640.      1344.0      56.000     0.15332    
1
1
                            STRESS PERIOD NO.   40, LENGTH =   86400.00    
                            -----------------------------------------------

                              NUMBER OF TIME STEPS =     1

                               MULTIPLIER FOR DELT =     1.000

                            INITIAL TIME STEP SIZE =   86400.00    

 REUSING RECH FROM LAST STRESS PERIOD

 CHD NO.   LAYER   ROW   COL    START HEAD        END HEAD         IFACE           
 ----------------------------------------------------------------------------------
      1      4      1      1       109.5           109.5           0.000    
      2      5      1      1       109.5           109.5           0.000    
      3      4      1      2       109.5           109.5           0.000    
      4      5      1      2       109.5           109.5           0.000    
      5      4      1      3       109.5           109.5           0.000    
      6      5      1      3       109.5           109.5           0.000    
      7      4      1      4       109.5           109.5           0.000    
      8      5      1      4       109.5           109.5           0.000    
      9      4      1      5       109.5           109.5           0.000    
     10      5      1      5       109.5           109.5           0.000    
     11      4      1      6       109.5           109.5           0.000    
     12      5      1      6       109.5           109.5           0.000    
     13      4      1      7       109.5           109.5           0.000    
     14      5      1      7       109.5           109.5           0.000    
     15      4      1      8       109.5           109.5           0.000    
     16      5      1      8       109.5           109.5           0.000    
     17      4      1      9       109.5           109.5           0.000    
     18      5      1      9       109.5           109.5           0.000    
     19      4      1     10       109.5           109.5           0.000    
     20      5      1     10       109.5           109.5           0.000    
     21      4      1     11       109.5           109.5           0.000    
     22      5      1     11       109.5           109.5           0.000    
     23      4      1     12       109.5           109.5           0.000    
     24      5      1     12       109.5           109.5           0.000    
     25      4      1     13       109.5           109.5           0.000    
     26      5      1     13       109.5           109.5           0.000    
     27      4      1     14       109.5           109.5           0.000    
     28      5      1     14       109.5           109.5           0.000    
     29      4      1     15       109.5           109.5           0.000    
     30      5      1     15       109.5           109.5           0.000    
     31      4      1     16       109.5           109.5           0.000    
     32      5      1     16       109.5           109.5           0.000    
     33      4      1     17       109.5           109.5           0.000    
     34      5      1     17       109.5           109.5           0.000    
     35      4     17     17       109.3           109.3           0.000    
     36      5     17     17       109.3           109.3           0.000    
     37      4     18     17       109.3           109.3           0.000    
     38      5     18     17       109.3           109.3           0.000    
     39      4     18     16       109.3           109.3           0.000    
     40      5     18     16       109.3           109.3           0.000    
     41      4     19     16       109.3           109.3           0.000    
     42      5     19     16       109.3           109.3           0.000    
     43      4     19     15       109.2           109.3           0.000    
     44      5     19     15       109.2           109.3           0.000    
     45      4     20     15       109.2           109.3           0.000    
     46      5     20     15       109.2           109.3           0.000    
     47      4     20     14       109.2           109.3           0.000    
     48      5     20     14       109.2           109.3           0.000    
     49      4     20     13       109.2           109.3           0.000    
     50      5     20     13       109.2           109.3           0.000    
     51      4     20     12       109.2           109.3           0.000    
     52      5     20     12       109.2           109.3           0.000    
     53      4     20     11       109.2           109.3           0.000    
     54      5     20     11       109.2           109.3           0.000    
     55      4     21     11       109.2           109.3           0.000    
     56      5     21     11       109.2           109.3           0.000    
     57      4     21     10       109.2           109.2           0.000    
     58      5     21     10       109.2           109.2           0.000    
     59      4     21      9       109.2           109.2           0.000    
     60      5     21      9       109.2           109.2           0.000    
     61      4     21      8       109.2           109.2           0.000    
     62      5     21      8       109.2           109.2           0.000    
     63      4     21      7       109.2           109.2           0.000    
     64      5     21      7       109.2           109.2           0.000    
     65      4     21      6       109.2           109.2           0.000    
     66      5     21      6       109.2           109.2           0.000    
     67      4     21      5       109.2           109.2           0.000    
     68      5     21      5       109.2           109.2           0.000    
     69      4     22      5       109.2           109.2           0.000    
     70      5     22      5       109.2           109.2           0.000    
     71      4     22      4       109.2           109.2           0.000    
     72      5     22      4       109.2           109.2           0.000    
     73      4     22      3       109.2           109.2           0.000    
     74      5     22      3       109.2           109.2           0.000    
     75      4     22      2       109.2           109.2           0.000    
     76      5     22      2       109.2           109.2           0.000    
     77      4     22      1       109.2           109.2           0.000    
     78      5     22      1       109.2           109.2           0.000    


     78 TIME-VARIANT SPECIFIED-HEAD CELLS

 SOLVING FOR HEAD 


     3 CALLS TO PCG ROUTINE FOR TIME STEP   1 IN STRESS PERIOD   40
    46 TOTAL ITERATIONS

 MAXIMUM HEAD CHANGE FOR EACH ITERATION (1 INDICATES THE FIRST INNER ITERATION):

    HEAD CHANGE    HEAD CHANGE    HEAD CHANGE    HEAD CHANGE    HEAD CHANGE 
   LAYER,ROW,COL  LAYER,ROW,COL  LAYER,ROW,COL  LAYER,ROW,COL  LAYER,ROW,COL
 ---------------------------------------------------------------------------
  1  0.3182E-01  0 -0.2244E-01  0 -0.1889E-01  0  0.1799E-01  0 -0.1355E-01
   (  5, 21,  2)  (  5, 20,  1)  (  5, 15,  1)  (  5, 20,  1)  (  5, 18,  1)
  0  0.5234E-02  0 -0.3638E-02  0 -0.2869E-02  0  0.1839E-02  0 -0.2273E-02
   (  5, 17,  1)  (  5, 12,  3)  (  5, 17,  1)  (  5, 19,  1)  (  5, 18,  1)
  0  0.1214E-02  0  0.6540E-03  0 -0.5706E-03  0  0.2790E-03  0 -0.2258E-03
   (  5, 17,  1)  (  5, 15,  3)  (  5, 15,  4)  (  5, 14,  4)  (  5, 13,  4)
  0  0.1684E-03  0 -0.1225E-03  0  0.8564E-04  0 -0.6676E-04  0  0.3187E-04
   (  5, 15,  3)  (  5, 14,  3)  (  5, 14,  5)  (  5, 13,  5)  (  5, 15,  1)
  0 -0.2652E-04  0  0.1974E-04  0 -0.1072E-04  0  0.5213E-05  0  0.5754E-05
   (  5, 13,  1)  (  5, 12,  1)  (  5, 15,  4)  (  5, 17,  5)  (  5,  7,  1)
  0  0.3836E-05  0 -0.3079E-05  0 -0.1419E-05  0 -0.1077E-05  0  0.7692E-06
   (  5, 17,  1)  (  5,  7,  1)  (  5,  6,  2)  (  5, 15,  4)  (  5, 21,  1)
  1  0.7377E-04  0  0.8432E-04  0  0.7976E-04  0 -0.4929E-04  0  0.3965E-04
   (  5, 11,  2)  (  3, 11,  2)  (  3, 11,  1)  (  5, 15,  1)  (  5, 16,  1)
  0 -0.2856E-04  0  0.1640E-04  0 -0.1376E-04  0 -0.6371E-05  0 -0.3637E-05
   (  5, 18,  1)  (  5, 18,  1)  (  5, 20,  1)  (  5, 10,  4)  (  5, 14,  3)
  0  0.2871E-05  0 -0.2853E-05  0  0.2220E-05  0 -0.1703E-05  0  0.6636E-06
   (  5, 16,  5)  (  5, 19,  1)  (  5, 20,  1)  (  5, 20,  1)  (  5, 11,  7)
  1 -0.5016E-06
   (  5, 20,  3)

 MAXIMUM RESIDUAL FOR EACH ITERATION (1 INDICATES THE FIRST INNER ITERATION):

    RESIDUAL       RESIDUAL       RESIDUAL       RESIDUAL       RESIDUAL    
   LAYER,ROW,COL  LAYER,ROW,COL  LAYER,ROW,COL  LAYER,ROW,COL  LAYER,ROW,COL
 ---------------------------------------------------------------------------
  1 -0.5252E-03  0 -0.3880E-03  0 -0.2485E-03  0 -0.1441E-03  0 -0.6919E-04
   (  3, 17, 17)  (  3, 17, 17)  (  3, 17, 17)  (  3, 20, 11)  (  3, 20, 11)
  0 -0.3267E-04  0 -0.3012E-04  0 -0.2825E-04  0 -0.2316E-04  0 -0.1802E-04
   (  3, 20, 11)  (  4, 16, 17)  (  4, 16, 17)  (  4, 16, 17)  (  4, 16, 17)
  0 -0.1354E-04  0 -0.9471E-05  0 -0.6432E-05  0 -0.4268E-05  0  0.2840E-05
   (  4, 16, 17)  (  4, 16, 17)  (  4, 16, 17)  (  4, 16, 17)  (  3, 21,  6)
  0  0.1992E-05  0  0.1402E-05  0  0.9592E-06  0  0.6064E-06  0  0.3995E-06
   (  3, 21,  6)  (  3, 21,  6)  (  3, 21,  6)  (  3, 21,  5)  (  3, 21,  5)
  0  0.3000E-06  0  0.1952E-06  0  0.1118E-06  0  0.6711E-07  0  0.4945E-07
   (  5, 16, 17)  (  5, 16, 17)  (  4, 20,  2)  (  3, 20, 11)  (  3, 20, 11)
  0  0.4420E-07  0  0.3706E-07  0  0.2642E-07  0  0.1805E-07  0  0.1252E-07
   (  4, 21,  4)  (  4, 21,  4)  (  4, 21,  4)  (  4, 21,  4)  (  4, 21,  4)
  1 -0.8832E-06  0 -0.6382E-06  0 -0.3957E-06  0 -0.2202E-06  0  0.1723E-06
   (  3, 11,  1)  (  3, 11,  1)  (  3, 11,  1)  (  3, 11,  1)  (  4, 11,  2)
  0  0.1301E-06  0 -0.1134E-06  0  0.7353E-07  0 -0.5570E-07  0 -0.5173E-07
   (  4, 21,  2)  (  4, 21,  1)  (  4, 21,  2)  (  4, 21,  1)  (  4, 10,  2)
  0 -0.3475E-07  0 -0.2024E-07  0 -0.1354E-07  0 -0.1007E-07  0 -0.6114E-08
   (  4, 10,  2)  (  4, 10,  2)  (  4, 10,  2)  (  4, 11,  2)  (  4, 11,  2)
  1 -0.5084E-08
   (  4, 11,  2)



 OUTPUT CONTROL FOR STRESS PERIOD   40   TIME STEP    1
    SAVE HEAD FOR ALL LAYERS
    SAVE DRAWDOWN FOR ALL LAYERS
    SAVE BUDGET
    PRINT BUDGET
 UBDSV1 SAVING "         STORAGE" ON UNIT   9 AT TIME STEP  1, STRESS PERIOD  40
 UBDSV2 SAVING "   CONSTANT HEAD" ON UNIT   9 AT TIME STEP  1, STRESS PERIOD  40
 UBDSV1 SAVING "FLOW RIGHT FACE " ON UNIT   9 AT TIME STEP  1, STRESS PERIOD  40
 UBDSV1 SAVING "FLOW FRONT FACE " ON UNIT   9 AT TIME STEP  1, STRESS PERIOD  40
 UBDSV1 SAVING "FLOW LOWER FACE " ON UNIT   9 AT TIME STEP  1, STRESS PERIOD  40
 UBDSV3 SAVING "        RECHARGE" ON UNIT   9 AT TIME STEP  1, STRESS PERIOD  40

 HEAD WILL BE SAVED ON UNIT   37 AT END OF TIME STEP    1, STRESS PERIOD   40

 DRAWDOWN WILL BE SAVED ON UNIT   38 AT END OF TIME STEP    1, STRESS PERIOD   40
1
  VOLUMETRIC BUDGET FOR ENTIRE MODEL AT END OF TIME STEP    1, STRESS PERIOD  40
  ------------------------------------------------------------------------------

     CUMULATIVE VOLUMES      L**3       RATES FOR THIS TIME STEP      L**3/T
     ------------------                 ------------------------

           IN:                                      IN:
           ---                                      ---
             STORAGE =        8651.6641               STORAGE =       5.5807E-04
       CONSTANT HEAD =       12333.0254         CONSTANT HEAD =       1.9670E-03
            RECHARGE =         481.7112              RECHARGE =       9.7813E-05

            TOTAL IN =       21466.4004              TOTAL IN =       2.6229E-03

          OUT:                                     OUT:
          ----                                     ----
             STORAGE =        3640.1287               STORAGE =       1.4238E-05
       CONSTANT HEAD =       17826.7637         CONSTANT HEAD =       2.6087E-03
            RECHARGE =           0.0000              RECHARGE =           0.0000

           TOTAL OUT =       21466.8926             TOTAL OUT =       2.6229E-03

            IN - OUT =          -0.4922              IN - OUT =      -6.3097E-08

 PERCENT DISCREPANCY =          -0.00     PERCENT DISCREPANCY =          -0.00






         TIME SUMMARY AT END OF TIME STEP    1 IN STRESS PERIOD   40
                    SECONDS     MINUTES      HOURS       DAYS        YEARS
                    -----------------------------------------------------------
   TIME STEP LENGTH  86400.      1440.0      24.000      1.0000     2.73785E-03
 STRESS PERIOD TIME  86400.      1440.0      24.000      1.0000     2.73785E-03
         TOTAL TIME 4.92480E+06  82080.      1368.0      57.000     0.15606    
1
1
                            STRESS PERIOD NO.   41, LENGTH =   86400.00    
                            -----------------------------------------------

                              NUMBER OF TIME STEPS =     1

                               MULTIPLIER FOR DELT =     1.000

                            INITIAL TIME STEP SIZE =   86400.00    

 REUSING RECH FROM LAST STRESS PERIOD

 CHD NO.   LAYER   ROW   COL    START HEAD        END HEAD         IFACE           
 ----------------------------------------------------------------------------------
      1      4      1      1       109.5           109.5           0.000    
      2      5      1      1       109.5           109.5           0.000    
      3      4      1      2       109.5           109.5           0.000    
      4      5      1      2       109.5           109.5           0.000    
      5      4      1      3       109.5           109.5           0.000    
      6      5      1      3       109.5           109.5           0.000    
      7      4      1      4       109.5           109.5           0.000    
      8      5      1      4       109.5           109.5           0.000    
      9      4      1      5       109.5           109.5           0.000    
     10      5      1      5       109.5           109.5           0.000    
     11      4      1      6       109.5           109.5           0.000    
     12      5      1      6       109.5           109.5           0.000    
     13      4      1      7       109.5           109.5           0.000    
     14      5      1      7       109.5           109.5           0.000    
     15      4      1      8       109.5           109.5           0.000    
     16      5      1      8       109.5           109.5           0.000    
     17      4      1      9       109.5           109.5           0.000    
     18      5      1      9       109.5           109.5           0.000    
     19      4      1     10       109.5           109.5           0.000    
     20      5      1     10       109.5           109.5           0.000    
     21      4      1     11       109.5           109.5           0.000    
     22      5      1     11       109.5           109.5           0.000    
     23      4      1     12       109.5           109.5           0.000    
     24      5      1     12       109.5           109.5           0.000    
     25      4      1     13       109.5           109.5           0.000    
     26      5      1     13       109.5           109.5           0.000    
     27      4      1     14       109.5           109.5           0.000    
     28      5      1     14       109.5           109.5           0.000    
     29      4      1     15       109.5           109.5           0.000    
     30      5      1     15       109.5           109.5           0.000    
     31      4      1     16       109.5           109.5           0.000    
     32      5      1     16       109.5           109.5           0.000    
     33      4      1     17       109.5           109.5           0.000    
     34      5      1     17       109.5           109.5           0.000    
     35      4     17     17       109.3           109.4           0.000    
     36      5     17     17       109.3           109.4           0.000    
     37      4     18     17       109.3           109.4           0.000    
     38      5     18     17       109.3           109.4           0.000    
     39      4     18     16       109.3           109.4           0.000    
     40      5     18     16       109.3           109.4           0.000    
     41      4     19     16       109.3           109.4           0.000    
     42      5     19     16       109.3           109.4           0.000    
     43      4     19     15       109.3           109.4           0.000    
     44      5     19     15       109.3           109.4           0.000    
     45      4     20     15       109.3           109.4           0.000    
     46      5     20     15       109.3           109.4           0.000    
     47      4     20     14       109.3           109.4           0.000    
     48      5     20     14       109.3           109.4           0.000    
     49      4     20     13       109.3           109.4           0.000    
     50      5     20     13       109.3           109.4           0.000    
     51      4     20     12       109.3           109.4           0.000    
     52      5     20     12       109.3           109.4           0.000    
     53      4     20     11       109.3           109.4           0.000    
     54      5     20     11       109.3           109.4           0.000    
     55      4     21     11       109.3           109.4           0.000    
     56      5     21     11       109.3           109.4           0.000    
     57      4     21     10       109.2           109.4           0.000    
     58      5     21     10       109.2           109.4           0.000    
     59      4     21      9       109.2           109.4           0.000    
     60      5     21      9       109.2           109.4           0.000    
     61      4     21      8       109.2           109.4           0.000    
     62      5     21      8       109.2           109.4           0.000    
     63      4     21      7       109.2           109.4           0.000    
     64      5     21      7       109.2           109.4           0.000    
     65      4     21      6       109.2           109.4           0.000    
     66      5     21      6       109.2           109.4           0.000    
     67      4     21      5       109.2           109.4           0.000    
     68      5     21      5       109.2           109.4           0.000    
     69      4     22      5       109.2           109.4           0.000    
     70      5     22      5       109.2           109.4           0.000    
     71      4     22      4       109.2           109.4           0.000    
     72      5     22      4       109.2           109.4           0.000    
     73      4     22      3       109.2           109.4           0.000    
     74      5     22      3       109.2           109.4           0.000    
     75      4     22      2       109.2           109.4           0.000    
     76      5     22      2       109.2           109.4           0.000    
     77      4     22      1       109.2           109.4           0.000    
     78      5     22      1       109.2           109.4           0.000    


     78 TIME-VARIANT SPECIFIED-HEAD CELLS

 SOLVING FOR HEAD 


     4 CALLS TO PCG ROUTINE FOR TIME STEP   1 IN STRESS PERIOD   41
    70 TOTAL ITERATIONS

 MAXIMUM HEAD CHANGE FOR EACH ITERATION (1 INDICATES THE FIRST INNER ITERATION):

    HEAD CHANGE    HEAD CHANGE    HEAD CHANGE    HEAD CHANGE    HEAD CHANGE 
   LAYER,ROW,COL  LAYER,ROW,COL  LAYER,ROW,COL  LAYER,ROW,COL  LAYER,ROW,COL
 ---------------------------------------------------------------------------
  1  0.4361      0 -0.3294      0  0.2548      0 -0.1670      0  0.1114    
   (  5, 21,  2)  (  5, 20,  1)  (  5, 19,  1)  (  5, 17,  1)  (  5, 16,  1)
  0 -0.7131E-01  0  0.6896E-01  0 -0.4548E-01  0  0.2394E-01  0 -0.1582E-01
   (  5, 15,  1)  (  5, 18,  1)  (  5, 17,  1)  (  5, 19,  1)  (  5, 18,  1)
  0 -0.9929E-02  0  0.7864E-02  0 -0.6599E-02  0  0.4470E-02  0 -0.2718E-02
   (  5, 17,  3)  (  5, 15,  3)  (  5, 15,  3)  (  5, 15,  5)  (  5, 13,  4)
  0  0.1390E-02  0 -0.9352E-03  0  0.6364E-03  0 -0.4375E-03  0 -0.2542E-03
   (  5, 13,  5)  (  5, 12,  6)  (  5, 14,  5)  (  5, 13,  5)  (  5, 19,  2)
  0  0.2801E-03  0 -0.1234E-03  0  0.1228E-03  0 -0.7319E-04  0  0.5663E-04
   (  5, 18,  2)  (  5, 18,  1)  (  5, 19,  1)  (  5, 18,  1)  (  5, 14,  1)
  0 -0.4780E-04  0 -0.2441E-04  0  0.1639E-04  0 -0.1134E-04  0  0.8325E-05
   (  5, 16,  1)  (  5,  6,  1)  (  5,  6,  1)  (  5,  6,  1)  (  5,  6,  1)
  1  0.2195E-02  0  0.1985E-02  0  0.2178E-02  0  0.2961E-02  0  0.2913E-02
   (  5, 15,  2)  (  5, 13,  4)  (  5, 17,  1)  (  5, 14,  1)  (  5, 18,  1)
  0  0.2160E-02  0  0.1629E-02  0 -0.9022E-03  0  0.6247E-03  0 -0.6513E-03
   (  5, 17,  3)  (  5, 20,  1)  (  5, 20,  1)  (  5, 15,  3)  (  5, 16,  5)
  0  0.4113E-03  0 -0.4006E-03  0  0.3269E-03  0  0.1994E-03  0  0.1195E-03
   (  5, 13,  1)  (  5, 16,  1)  (  5, 16,  5)  (  5, 18,  3)  (  5, 16,  1)
  0 -0.9564E-04  0  0.8342E-04  0 -0.6456E-04  0  0.4934E-04  0  0.4353E-04
   (  5, 18,  2)  (  5, 18,  1)  (  5, 20,  1)  (  5, 21,  2)  (  5, 15,  1)
  0 -0.2752E-04  0  0.2388E-04  0 -0.2859E-04  0 -0.1035E-04  0  0.7495E-05
   (  5, 16,  2)  (  5, 19,  1)  (  5, 18,  1)  (  5, 20,  3)  (  5, 19,  3)
  0  0.6573E-05  0  0.3848E-05  0 -0.3342E-05  0  0.3564E-05  0 -0.2470E-05
   (  5,  7,  1)  (  5, 18,  1)  (  5,  7,  1)  (  5, 16,  1)  (  5, 14,  1)
  1  0.5838E-05  0 -0.6068E-05  0  0.6065E-05  0  0.5571E-05  0 -0.4983E-05
   (  5, 12,  1)  (  5, 16,  1)  (  5, 19,  1)  (  5, 14,  3)  (  5, 15,  3)
  0 -0.3317E-05  0  0.2852E-05  0 -0.1939E-05  0 -0.9226E-06  1  0.6542E-06
   (  5, 18,  1)  (  5, 19,  1)  (  5, 20,  1)  (  5, 14,  4)  (  5, 18,  4)

 MAXIMUM RESIDUAL FOR EACH ITERATION (1 INDICATES THE FIRST INNER ITERATION):

    RESIDUAL       RESIDUAL       RESIDUAL       RESIDUAL       RESIDUAL    
   LAYER,ROW,COL  LAYER,ROW,COL  LAYER,ROW,COL  LAYER,ROW,COL  LAYER,ROW,COL
 ---------------------------------------------------------------------------
  1 -0.8513E-02  0 -0.6749E-02  0 -0.4733E-02  0 -0.3066E-02  0 -0.1783E-02
   (  3, 17, 17)  (  3, 17, 17)  (  3, 17, 17)  (  3, 17, 17)  (  3, 17, 17)
  0 -0.1079E-02  0 -0.6920E-03  0 -0.4401E-03  0 -0.3478E-03  0 -0.2688E-03
   (  3, 20, 11)  (  3, 20, 11)  (  3, 20, 11)  (  4, 16, 17)  (  4, 16, 17)
  0 -0.2019E-03  0 -0.1432E-03  0 -0.1002E-03  0 -0.6900E-04  0 -0.4771E-04
   (  4, 16, 17)  (  4, 16, 17)  (  4, 16, 17)  (  4, 16, 17)  (  4, 16, 17)
  0 -0.3251E-04  0 -0.2190E-04  0 -0.1382E-04  0  0.7992E-05  0  0.4248E-05
   (  4, 16, 17)  (  4, 16, 17)  (  4, 16, 17)  (  3, 21,  6)  (  3, 21,  6)
  0  0.2169E-05  0 -0.1421E-05  0 -0.1176E-05  0 -0.9091E-06  0 -0.7176E-06
   (  3, 21,  6)  (  3, 17, 17)  (  3, 17, 17)  (  3, 17, 17)  (  3, 17, 17)
  0 -0.6093E-06  0 -0.4536E-06  0 -0.3190E-06  0 -0.2166E-06  0 -0.1529E-06
   (  3, 17, 17)  (  3, 17, 17)  (  3, 17, 17)  (  3, 17, 17)  (  3, 17, 17)
  1 -0.1530E-04  0 -0.1464E-04  0 -0.1339E-04  0 -0.1031E-04  0 -0.9217E-05
   (  3, 20,  2)  (  3, 20,  2)  (  3, 20,  2)  (  3, 20,  2)  (  4, 21,  1)
  0 -0.7933E-05  0 -0.9452E-05  0 -0.7120E-05  0 -0.6327E-05  0  0.4879E-05
   (  4, 20,  1)  (  4, 21,  1)  (  4, 21,  1)  (  4, 21,  1)  (  4, 20,  2)
  0  0.3595E-05  0  0.3752E-05  0  0.3542E-05  0  0.2809E-05  0  0.2271E-05
   (  4, 21,  2)  (  4, 21,  2)  (  4, 21,  2)  (  4, 21,  2)  (  4, 21,  2)
  0  0.2073E-05  0  0.1438E-05  0  0.9894E-06  0  0.5185E-06  0 -0.3734E-06
   (  4, 21,  2)  (  4, 21,  2)  (  4, 21,  2)  (  4, 21,  2)  (  4, 20,  2)
  0 -0.3605E-06  0 -0.3460E-06  0 -0.2259E-06  0 -0.1396E-06  0 -0.1086E-06
   (  4, 20,  2)  (  4, 20,  2)  (  4, 20,  2)  (  4, 20,  2)  (  4, 21,  2)
  0 -0.7939E-07  0 -0.7354E-07  0 -0.5059E-07  0 -0.3740E-07  0 -0.2838E-07
   (  4, 21,  2)  (  4, 21,  2)  (  4, 21,  2)  (  4, 21,  2)  (  4, 21,  2)
  1  0.6405E-07  0  0.5446E-07  0  0.3523E-07  0  0.2618E-07  0 -0.1628E-07
   (  2, 13,  5)  (  2, 13,  5)  (  2, 13,  5)  (  2, 13,  5)  (  4, 20,  2)
  0  0.1842E-07  0 -0.1293E-07  0  0.9757E-08  0  0.7636E-08  1  0.6937E-08
   (  4, 18,  3)  (  4, 20,  2)  (  4, 18,  3)  (  4, 21,  2)  (  4, 21,  2)



 OUTPUT CONTROL FOR STRESS PERIOD   41   TIME STEP    1
    SAVE HEAD FOR ALL LAYERS
    SAVE DRAWDOWN FOR ALL LAYERS
    SAVE BUDGET
    PRINT BUDGET
 UBDSV1 SAVING "         STORAGE" ON UNIT   9 AT TIME STEP  1, STRESS PERIOD  41
 UBDSV2 SAVING "   CONSTANT HEAD" ON UNIT   9 AT TIME STEP  1, STRESS PERIOD  41
 UBDSV1 SAVING "FLOW RIGHT FACE " ON UNIT   9 AT TIME STEP  1, STRESS PERIOD  41
 UBDSV1 SAVING "FLOW FRONT FACE " ON UNIT   9 AT TIME STEP  1, STRESS PERIOD  41
 UBDSV1 SAVING "FLOW LOWER FACE " ON UNIT   9 AT TIME STEP  1, STRESS PERIOD  41
 UBDSV3 SAVING "        RECHARGE" ON UNIT   9 AT TIME STEP  1, STRESS PERIOD  41

 HEAD WILL BE SAVED ON UNIT   37 AT END OF TIME STEP    1, STRESS PERIOD   41

 DRAWDOWN WILL BE SAVED ON UNIT   38 AT END OF TIME STEP    1, STRESS PERIOD   41
1
  VOLUMETRIC BUDGET FOR ENTIRE MODEL AT END OF TIME STEP    1, STRESS PERIOD  41
  ------------------------------------------------------------------------------

     CUMULATIVE VOLUMES      L**3       RATES FOR THIS TIME STEP      L**3/T
     ------------------                 ------------------------

           IN:                                      IN:
           ---                                      ---
             STORAGE =        8651.6641               STORAGE =           0.0000
       CONSTANT HEAD =       12581.8496         CONSTANT HEAD =       2.8799E-03
            RECHARGE =         490.1623              RECHARGE =       9.7813E-05

            TOTAL IN =       21723.6758              TOTAL IN =       2.9777E-03

          OUT:                                     OUT:
          ----                                     ----
             STORAGE =        3894.3428               STORAGE =       2.9423E-03
       CONSTANT HEAD =       17829.8340         CONSTANT HEAD =       3.5529E-05
            RECHARGE =           0.0000              RECHARGE =           0.0000

           TOTAL OUT =       21724.1758             TOTAL OUT =       2.9778E-03

            IN - OUT =          -0.5000              IN - OUT =      -9.3598E-08

 PERCENT DISCREPANCY =          -0.00     PERCENT DISCREPANCY =          -0.00






         TIME SUMMARY AT END OF TIME STEP    1 IN STRESS PERIOD   41
                    SECONDS     MINUTES      HOURS       DAYS        YEARS
                    -----------------------------------------------------------
   TIME STEP LENGTH  86400.      1440.0      24.000      1.0000     2.73785E-03
 STRESS PERIOD TIME  86400.      1440.0      24.000      1.0000     2.73785E-03
         TOTAL TIME 5.01120E+06  83520.      1392.0      58.000     0.15880    
1
1
                            STRESS PERIOD NO.   42, LENGTH =   86400.00    
                            -----------------------------------------------

                              NUMBER OF TIME STEPS =     1

                               MULTIPLIER FOR DELT =     1.000

                            INITIAL TIME STEP SIZE =   86400.00    

 REUSING RECH FROM LAST STRESS PERIOD

 CHD NO.   LAYER   ROW   COL    START HEAD        END HEAD         IFACE           
 ----------------------------------------------------------------------------------
      1      4      1      1       109.5           109.6           0.000    
      2      5      1      1       109.5           109.6           0.000    
      3      4      1      2       109.5           109.6           0.000    
      4      5      1      2       109.5           109.6           0.000    
      5      4      1      3       109.5           109.6           0.000    
      6      5      1      3       109.5           109.6           0.000    
      7      4      1      4       109.5           109.6           0.000    
      8      5      1      4       109.5           109.6           0.000    
      9      4      1      5       109.5           109.6           0.000    
     10      5      1      5       109.5           109.6           0.000    
     11      4      1      6       109.5           109.6           0.000    
     12      5      1      6       109.5           109.6           0.000    
     13      4      1      7       109.5           109.6           0.000    
     14      5      1      7       109.5           109.6           0.000    
     15      4      1      8       109.5           109.6           0.000    
     16      5      1      8       109.5           109.6           0.000    
     17      4      1      9       109.5           109.6           0.000    
     18      5      1      9       109.5           109.6           0.000    
     19      4      1     10       109.5           109.6           0.000    
     20      5      1     10       109.5           109.6           0.000    
     21      4      1     11       109.5           109.6           0.000    
     22      5      1     11       109.5           109.6           0.000    
     23      4      1     12       109.5           109.6           0.000    
     24      5      1     12       109.5           109.6           0.000    
     25      4      1     13       109.5           109.6           0.000    
     26      5      1     13       109.5           109.6           0.000    
     27      4      1     14       109.5           109.6           0.000    
     28      5      1     14       109.5           109.6           0.000    
     29      4      1     15       109.5           109.6           0.000    
     30      5      1     15       109.5           109.6           0.000    
     31      4      1     16       109.5           109.6           0.000    
     32      5      1     16       109.5           109.6           0.000    
     33      4      1     17       109.5           109.6           0.000    
     34      5      1     17       109.5           109.6           0.000    
     35      4     17     17       109.4           109.4           0.000    
     36      5     17     17       109.4           109.4           0.000    
     37      4     18     17       109.4           109.4           0.000    
     38      5     18     17       109.4           109.4           0.000    
     39      4     18     16       109.4           109.4           0.000    
     40      5     18     16       109.4           109.4           0.000    
     41      4     19     16       109.4           109.4           0.000    
     42      5     19     16       109.4           109.4           0.000    
     43      4     19     15       109.4           109.4           0.000    
     44      5     19     15       109.4           109.4           0.000    
     45      4     20     15       109.4           109.4           0.000    
     46      5     20     15       109.4           109.4           0.000    
     47      4     20     14       109.4           109.4           0.000    
     48      5     20     14       109.4           109.4           0.000    
     49      4     20     13       109.4           109.4           0.000    
     50      5     20     13       109.4           109.4           0.000    
     51      4     20     12       109.4           109.4           0.000    
     52      5     20     12       109.4           109.4           0.000    
     53      4     20     11       109.4           109.4           0.000    
     54      5     20     11       109.4           109.4           0.000    
     55      4     21     11       109.4           109.4           0.000    
     56      5     21     11       109.4           109.4           0.000    
     57      4     21     10       109.4           109.4           0.000    
     58      5     21     10       109.4           109.4           0.000    
     59      4     21      9       109.4           109.4           0.000    
     60      5     21      9       109.4           109.4           0.000    
     61      4     21      8       109.4           109.4           0.000    
     62      5     21      8       109.4           109.4           0.000    
     63      4     21      7       109.4           109.4           0.000    
     64      5     21      7       109.4           109.4           0.000    
     65      4     21      6       109.4           109.4           0.000    
     66      5     21      6       109.4           109.4           0.000    
     67      4     21      5       109.4           109.4           0.000    
     68      5     21      5       109.4           109.4           0.000    
     69      4     22      5       109.4           109.4           0.000    
     70      5     22      5       109.4           109.4           0.000    
     71      4     22      4       109.4           109.4           0.000    
     72      5     22      4       109.4           109.4           0.000    
     73      4     22      3       109.4           109.4           0.000    
     74      5     22      3       109.4           109.4           0.000    
     75      4     22      2       109.4           109.4           0.000    
     76      5     22      2       109.4           109.4           0.000    
     77      4     22      1       109.4           109.4           0.000    
     78      5     22      1       109.4           109.4           0.000    


     78 TIME-VARIANT SPECIFIED-HEAD CELLS

 SOLVING FOR HEAD 


     3 CALLS TO PCG ROUTINE FOR TIME STEP   1 IN STRESS PERIOD   42
    51 TOTAL ITERATIONS

 MAXIMUM HEAD CHANGE FOR EACH ITERATION (1 INDICATES THE FIRST INNER ITERATION):

    HEAD CHANGE    HEAD CHANGE    HEAD CHANGE    HEAD CHANGE    HEAD CHANGE 
   LAYER,ROW,COL  LAYER,ROW,COL  LAYER,ROW,COL  LAYER,ROW,COL  LAYER,ROW,COL
 ---------------------------------------------------------------------------
  1  0.4321E-01  0 -0.3409E-01  0  0.2852E-01  0 -0.2780E-01  0  0.1975E-01
   (  5, 16,  2)  (  5, 16,  1)  (  5, 20,  1)  (  5, 18,  1)  (  5, 18,  3)
  0  0.1574E-01  0 -0.9726E-02  0  0.6663E-02  0  0.3695E-02  0 -0.4227E-02
   (  5, 18,  1)  (  5, 13,  3)  (  5, 20,  1)  (  5, 14,  3)  (  5, 19,  1)
  0  0.2901E-02  0  0.1703E-02  0 -0.1705E-02  0 -0.1417E-02  0  0.1299E-02
   (  5, 16,  4)  (  5, 16,  2)  (  5, 15,  4)  (  5, 13,  5)  (  5, 12,  5)
  0  0.7508E-03  0 -0.6150E-03  0  0.3456E-03  0  0.3119E-03  0 -0.1541E-03
   (  5, 19,  3)  (  5, 20,  3)  (  5, 18,  1)  (  5, 14,  1)  (  5, 19,  3)
  0  0.1800E-03  0 -0.1207E-03  0  0.1391E-03  0 -0.9385E-04  0 -0.5411E-04
   (  5, 15,  3)  (  5, 15,  1)  (  5, 20,  1)  (  5, 18,  1)  (  5, 17,  4)
  0  0.5527E-04  0  0.2514E-04  0 -0.1642E-04  0 -0.1183E-04  0 -0.1192E-04
   (  5, 17,  3)  (  5, 19,  2)  (  5,  8,  1)  (  5, 19,  2)  (  5, 13,  2)
  1  0.8594E-04  0 -0.7819E-04  0  0.7917E-04  0  0.5629E-04  0  0.6296E-04
   (  5, 15,  1)  (  5, 18,  3)  (  5, 18,  3)  (  5, 14,  3)  (  5, 19,  1)
  0 -0.4313E-04  0  0.2896E-04  0 -0.2287E-04  0  0.1323E-04  0 -0.1144E-04
   (  5, 19,  2)  (  5, 18,  2)  (  5, 11,  4)  (  5, 12,  4)  (  5, 13,  5)
  0  0.9713E-05  0 -0.5011E-05  0  0.6801E-05  0 -0.3319E-05  0 -0.2955E-05
   (  5, 16,  1)  (  5, 14,  1)  (  5, 20,  1)  (  5, 20,  1)  (  5, 19,  3)
  0 -0.1958E-05  0  0.1660E-05  0 -0.1023E-05  0  0.1412E-05  0 -0.5970E-06
   (  5, 18,  1)  (  5, 19,  3)  (  5, 20,  2)  (  5, 18,  1)  (  5, 19,  1)
  1  0.4700E-06
   (  5, 16,  1)

 MAXIMUM RESIDUAL FOR EACH ITERATION (1 INDICATES THE FIRST INNER ITERATION):

    RESIDUAL       RESIDUAL       RESIDUAL       RESIDUAL       RESIDUAL    
   LAYER,ROW,COL  LAYER,ROW,COL  LAYER,ROW,COL  LAYER,ROW,COL  LAYER,ROW,COL
 ---------------------------------------------------------------------------
  1 -0.3031E-03  0 -0.1896E-03  0  0.1458E-03  0  0.1405E-03  0  0.1113E-03
   (  4,  2, 17)  (  4,  2, 17)  (  5, 15, 17)  (  5, 15, 17)  (  5, 15, 17)
  0  0.8391E-04  0  0.6026E-04  0  0.4384E-04  0 -0.3143E-04  0 -0.2577E-04
   (  5, 15, 17)  (  5, 16, 17)  (  5, 16, 17)  (  3, 17, 17)  (  3, 17, 17)
  0 -0.1968E-04  0 -0.1848E-04  0  0.1428E-04  0  0.1125E-04  0  0.7890E-05
   (  3, 17, 17)  (  4, 21,  1)  (  5,  3, 17)  (  5,  3, 17)  (  5,  2, 17)
  0  0.6187E-05  0  0.4871E-05  0  0.4330E-05  0  0.3394E-05  0  0.2623E-05
   (  5,  2, 17)  (  4, 21,  2)  (  4, 21,  2)  (  4, 21,  2)  (  4, 21,  2)
  0  0.1907E-05  0  0.1788E-05  0 -0.1452E-05  0 -0.1163E-05  0 -0.8281E-06
   (  4, 21,  2)  (  4, 21,  2)  (  5, 16, 17)  (  5, 16, 17)  (  5, 16, 17)
  0 -0.5515E-06  0 -0.3663E-06  0 -0.2345E-06  0 -0.2024E-06  0  0.1292E-06
   (  5, 16, 17)  (  5, 16, 17)  (  5, 16, 17)  (  5, 16, 17)  (  3, 17, 17)
  1  0.5691E-06  0 -0.4297E-06  0  0.3097E-06  0  0.2391E-06  0 -0.1946E-06
   (  2,  2,  6)  (  5,  7,  1)  (  2,  2,  6)  (  2,  2,  6)  (  5,  3,  8)
  0 -0.1467E-06  0  0.1238E-06  0  0.9305E-07  0 -0.6356E-07  0 -0.3890E-07
   (  5,  3,  8)  (  5, 16, 17)  (  5, 16, 17)  (  5,  2, 17)  (  5,  2, 17)
  0  0.2956E-07  0  0.2832E-07  0  0.2234E-07  0  0.1447E-07  0 -0.1286E-07
   (  4, 17, 16)  (  4, 17, 16)  (  4, 17, 16)  (  4, 17, 16)  (  4,  4, 17)
  0 -0.9138E-08  0  0.5735E-08  0  0.5608E-08  0  0.3766E-08  0 -0.3011E-08
   (  5,  6,  1)  (  4, 21,  2)  (  4, 21,  2)  (  2,  2,  1)  (  5,  6,  1)
  1  0.2393E-08
   (  4, 20,  1)



 OUTPUT CONTROL FOR STRESS PERIOD   42   TIME STEP    1
    SAVE HEAD FOR ALL LAYERS
    SAVE DRAWDOWN FOR ALL LAYERS
    SAVE BUDGET
    PRINT BUDGET
 UBDSV1 SAVING "         STORAGE" ON UNIT   9 AT TIME STEP  1, STRESS PERIOD  42
 UBDSV2 SAVING "   CONSTANT HEAD" ON UNIT   9 AT TIME STEP  1, STRESS PERIOD  42
 UBDSV1 SAVING "FLOW RIGHT FACE " ON UNIT   9 AT TIME STEP  1, STRESS PERIOD  42
 UBDSV1 SAVING "FLOW FRONT FACE " ON UNIT   9 AT TIME STEP  1, STRESS PERIOD  42
 UBDSV1 SAVING "FLOW LOWER FACE " ON UNIT   9 AT TIME STEP  1, STRESS PERIOD  42
 UBDSV3 SAVING "        RECHARGE" ON UNIT   9 AT TIME STEP  1, STRESS PERIOD  42

 HEAD WILL BE SAVED ON UNIT   37 AT END OF TIME STEP    1, STRESS PERIOD   42

 DRAWDOWN WILL BE SAVED ON UNIT   38 AT END OF TIME STEP    1, STRESS PERIOD   42
1
  VOLUMETRIC BUDGET FOR ENTIRE MODEL AT END OF TIME STEP    1, STRESS PERIOD  42
  ------------------------------------------------------------------------------

     CUMULATIVE VOLUMES      L**3       RATES FOR THIS TIME STEP      L**3/T
     ------------------                 ------------------------

           IN:                                      IN:
           ---                                      ---
             STORAGE =        8651.8896               STORAGE =       2.6155E-06
       CONSTANT HEAD =       12771.0703         CONSTANT HEAD =       2.1901E-03
            RECHARGE =         498.6134              RECHARGE =       9.7813E-05

            TOTAL IN =       21921.5742              TOTAL IN =       2.2905E-03

          OUT:                                     OUT:
          ----                                     ----
             STORAGE =        4006.2583               STORAGE =       1.2953E-03
       CONSTANT HEAD =       17915.8242         CONSTANT HEAD =       9.9525E-04
            RECHARGE =           0.0000              RECHARGE =           0.0000

           TOTAL OUT =       21922.0820             TOTAL OUT =       2.2906E-03

            IN - OUT =          -0.5078              IN - OUT =      -8.6613E-08

 PERCENT DISCREPANCY =          -0.00     PERCENT DISCREPANCY =          -0.00






         TIME SUMMARY AT END OF TIME STEP    1 IN STRESS PERIOD   42
                    SECONDS     MINUTES      HOURS       DAYS        YEARS
                    -----------------------------------------------------------
   TIME STEP LENGTH  86400.      1440.0      24.000      1.0000     2.73785E-03
 STRESS PERIOD TIME  86400.      1440.0      24.000      1.0000     2.73785E-03
         TOTAL TIME 5.09760E+06  84960.      1416.0      59.000     0.16153    
1
1
                            STRESS PERIOD NO.   43, LENGTH =   86400.00    
                            -----------------------------------------------

                              NUMBER OF TIME STEPS =     1

                               MULTIPLIER FOR DELT =     1.000

                            INITIAL TIME STEP SIZE =   86400.00    

 REUSING RECH FROM LAST STRESS PERIOD

 CHD NO.   LAYER   ROW   COL    START HEAD        END HEAD         IFACE           
 ----------------------------------------------------------------------------------
      1      4      1      1       109.6           109.5           0.000    
      2      5      1      1       109.6           109.5           0.000    
      3      4      1      2       109.6           109.5           0.000    
      4      5      1      2       109.6           109.5           0.000    
      5      4      1      3       109.6           109.5           0.000    
      6      5      1      3       109.6           109.5           0.000    
      7      4      1      4       109.6           109.5           0.000    
      8      5      1      4       109.6           109.5           0.000    
      9      4      1      5       109.6           109.5           0.000    
     10      5      1      5       109.6           109.5           0.000    
     11      4      1      6       109.6           109.5           0.000    
     12      5      1      6       109.6           109.5           0.000    
     13      4      1      7       109.6           109.5           0.000    
     14      5      1      7       109.6           109.5           0.000    
     15      4      1      8       109.6           109.5           0.000    
     16      5      1      8       109.6           109.5           0.000    
     17      4      1      9       109.6           109.5           0.000    
     18      5      1      9       109.6           109.5           0.000    
     19      4      1     10       109.6           109.5           0.000    
     20      5      1     10       109.6           109.5           0.000    
     21      4      1     11       109.6           109.5           0.000    
     22      5      1     11       109.6           109.5           0.000    
     23      4      1     12       109.6           109.5           0.000    
     24      5      1     12       109.6           109.5           0.000    
     25      4      1     13       109.6           109.5           0.000    
     26      5      1     13       109.6           109.5           0.000    
     27      4      1     14       109.6           109.5           0.000    
     28      5      1     14       109.6           109.5           0.000    
     29      4      1     15       109.6           109.5           0.000    
     30      5      1     15       109.6           109.5           0.000    
     31      4      1     16       109.6           109.5           0.000    
     32      5      1     16       109.6           109.5           0.000    
     33      4      1     17       109.6           109.5           0.000    
     34      5      1     17       109.6           109.5           0.000    
     35      4     17     17       109.4           109.3           0.000    
     36      5     17     17       109.4           109.3           0.000    
     37      4     18     17       109.4           109.3           0.000    
     38      5     18     17       109.4           109.3           0.000    
     39      4     18     16       109.4           109.3           0.000    
     40      5     18     16       109.4           109.3           0.000    
     41      4     19     16       109.4           109.3           0.000    
     42      5     19     16       109.4           109.3           0.000    
     43      4     19     15       109.4           109.3           0.000    
     44      5     19     15       109.4           109.3           0.000    
     45      4     20     15       109.4           109.3           0.000    
     46      5     20     15       109.4           109.3           0.000    
     47      4     20     14       109.4           109.3           0.000    
     48      5     20     14       109.4           109.3           0.000    
     49      4     20     13       109.4           109.3           0.000    
     50      5     20     13       109.4           109.3           0.000    
     51      4     20     12       109.4           109.3           0.000    
     52      5     20     12       109.4           109.3           0.000    
     53      4     20     11       109.4           109.3           0.000    
     54      5     20     11       109.4           109.3           0.000    
     55      4     21     11       109.4           109.3           0.000    
     56      5     21     11       109.4           109.3           0.000    
     57      4     21     10       109.4           109.3           0.000    
     58      5     21     10       109.4           109.3           0.000    
     59      4     21      9       109.4           109.3           0.000    
     60      5     21      9       109.4           109.3           0.000    
     61      4     21      8       109.4           109.3           0.000    
     62      5     21      8       109.4           109.3           0.000    
     63      4     21      7       109.4           109.3           0.000    
     64      5     21      7       109.4           109.3           0.000    
     65      4     21      6       109.4           109.3           0.000    
     66      5     21      6       109.4           109.3           0.000    
     67      4     21      5       109.4           109.3           0.000    
     68      5     21      5       109.4           109.3           0.000    
     69      4     22      5       109.4           109.3           0.000    
     70      5     22      5       109.4           109.3           0.000    
     71      4     22      4       109.4           109.3           0.000    
     72      5     22      4       109.4           109.3           0.000    
     73      4     22      3       109.4           109.3           0.000    
     74      5     22      3       109.4           109.3           0.000    
     75      4     22      2       109.4           109.3           0.000    
     76      5     22      2       109.4           109.3           0.000    
     77      4     22      1       109.4           109.3           0.000    
     78      5     22      1       109.4           109.3           0.000    


     78 TIME-VARIANT SPECIFIED-HEAD CELLS

 SOLVING FOR HEAD 


     4 CALLS TO PCG ROUTINE FOR TIME STEP   1 IN STRESS PERIOD   43
    64 TOTAL ITERATIONS

 MAXIMUM HEAD CHANGE FOR EACH ITERATION (1 INDICATES THE FIRST INNER ITERATION):

    HEAD CHANGE    HEAD CHANGE    HEAD CHANGE    HEAD CHANGE    HEAD CHANGE 
   LAYER,ROW,COL  LAYER,ROW,COL  LAYER,ROW,COL  LAYER,ROW,COL  LAYER,ROW,COL
 ---------------------------------------------------------------------------
  1 -0.2680      0  0.1783      0 -0.1543      0 -0.1202      0 -0.1682    
   (  5, 21,  2)  (  5, 17,  1)  (  5, 16,  2)  (  5, 17,  1)  (  5, 19,  1)
  0 -0.9852E-01  0  0.8594E-01  0  0.6409E-01  0 -0.5629E-01  0  0.3283E-01
   (  5, 20,  1)  (  5, 18,  1)  (  5, 19,  1)  (  5, 18,  1)  (  5, 18,  4)
  0 -0.2543E-01  0  0.1598E-01  0  0.1144E-01  0 -0.1189E-01  0 -0.7143E-02
   (  5, 17,  3)  (  5, 13,  5)  (  5, 16,  2)  (  5, 12,  5)  (  5, 19,  3)
  0 -0.5457E-02  0  0.4825E-02  0  0.3375E-02  0  0.4743E-02  0  0.1742E-02
   (  5, 18,  1)  (  5, 18,  2)  (  5, 16,  3)  (  5, 19,  3)  (  5, 17,  2)
  0  0.1323E-02  0 -0.1095E-02  0 -0.7313E-03  0  0.7504E-03  0 -0.4832E-03
   (  5, 20,  2)  (  5, 20,  1)  (  5, 17,  1)  (  5, 20,  1)  (  5, 18,  5)
  0 -0.3854E-03  0  0.2607E-03  0  0.1883E-03  0 -0.2248E-03  0  0.1043E-03
   (  5, 20,  3)  (  5, 15,  4)  (  5, 18,  1)  (  5, 19,  2)  (  5,  6,  1)
  1  0.9867E-03  0 -0.6340E-03  0  0.1112E-02  0  0.9493E-03  0  0.8711E-03
   (  5, 19,  1)  (  5, 15,  1)  (  5, 14,  2)  (  5, 16,  1)  (  5, 18,  1)
  0 -0.3457E-03  0 -0.2076E-03  0  0.1797E-03  0 -0.1530E-03  0  0.1127E-03
   (  5, 21,  3)  (  5, 15,  4)  (  5, 14,  4)  (  5, 14,  5)  (  5, 13,  5)
  0  0.6912E-04  0  0.5316E-04  0 -0.4218E-04  0  0.2298E-04  0 -0.2564E-04
   (  5, 19,  1)  (  5, 21,  4)  (  5, 16,  3)  (  5, 15,  2)  (  5, 13,  1)
  0 -0.1748E-04  0 -0.1555E-04  0  0.1057E-04  0  0.8182E-05  0  0.4317E-05
   (  5, 18,  3)  (  5, 20,  1)  (  5, 19,  1)  (  5, 18,  2)  (  5, 13,  4)
  0  0.4796E-05  0  0.3401E-05  0  0.1422E-05  0 -0.1048E-05  0  0.1073E-05
   (  5, 20,  1)  (  5, 19,  3)  (  5, 12,  5)  (  5, 13,  1)  (  5, 15,  3)
  0  0.7353E-06  1 -0.1553E-05  0  0.1544E-05  0 -0.1959E-05  0 -0.1459E-05
   (  5, 18,  2)  (  5, 15,  1)  (  5, 13,  1)  (  5, 12,  2)  (  5, 15,  1)
  0 -0.1359E-05  0  0.1021E-05  0  0.6458E-06  1 -0.3643E-06
   (  5, 13,  4)  (  5, 20,  1)  (  5, 15,  4)  (  5, 15,  4)

 MAXIMUM RESIDUAL FOR EACH ITERATION (1 INDICATES THE FIRST INNER ITERATION):

    RESIDUAL       RESIDUAL       RESIDUAL       RESIDUAL       RESIDUAL    
   LAYER,ROW,COL  LAYER,ROW,COL  LAYER,ROW,COL  LAYER,ROW,COL  LAYER,ROW,COL
 ---------------------------------------------------------------------------
  1  0.7936E-02  0  0.7160E-02  0  0.6450E-02  0  0.5485E-02  0  0.4367E-02
   (  3, 17, 17)  (  3, 17, 17)  (  3, 17, 17)  (  3, 17, 17)  (  3, 17, 17)
  0  0.3265E-02  0  0.2180E-02  0  0.1319E-02  0  0.7929E-03  0  0.5065E-03
   (  3, 17, 17)  (  3, 17, 17)  (  3, 17, 17)  (  3, 20, 11)  (  3, 20, 11)
  0  0.3408E-03  0  0.2804E-03  0  0.2663E-03  0  0.2140E-03  0  0.1680E-03
   (  4, 16, 17)  (  4, 16, 17)  (  4, 16, 17)  (  4, 16, 17)  (  4, 16, 17)
  0  0.1300E-03  0  0.1151E-03  0  0.8460E-04  0  0.6034E-04  0  0.4176E-04
   (  4, 16, 17)  (  4, 16, 17)  (  4, 16, 17)  (  4, 16, 17)  (  4, 16, 17)
  0  0.3449E-04  0  0.2642E-04  0  0.2442E-04  0  0.1701E-04  0  0.1052E-04
   (  4, 16, 17)  (  4, 16, 17)  (  4, 16, 17)  (  4, 16, 17)  (  4, 16, 17)
  0 -0.6432E-05  0 -0.3491E-05  0 -0.2870E-05  0 -0.1577E-05  0  0.1068E-05
   (  3, 21,  6)  (  3, 21,  6)  (  3, 21,  6)  (  3, 21,  6)  (  3, 17, 17)
  1 -0.9058E-05  0 -0.7995E-05  0 -0.6142E-05  0  0.3987E-05  0  0.3197E-05
   (  3, 20,  1)  (  3, 21,  1)  (  3, 21,  1)  (  4, 19,  2)  (  4, 21,  3)
  0  0.3331E-05  0  0.2842E-05  0  0.2264E-05  0  0.1877E-05  0  0.1575E-05
   (  4, 21,  3)  (  4, 21,  3)  (  4, 21,  2)  (  4, 21,  2)  (  4, 21,  2)
  0  0.1244E-05  0  0.9078E-06  0  0.5615E-06  0  0.3742E-06  0  0.2543E-06
   (  4, 21,  2)  (  4, 21,  2)  (  4, 21,  2)  (  4, 21,  2)  (  4, 21,  2)
  0 -0.1551E-06  0  0.1182E-06  0 -0.8735E-07  0 -0.6261E-07  0  0.5879E-07
   (  4, 20,  2)  (  4, 21,  1)  (  4, 21,  3)  (  4, 21,  3)  (  4, 20,  3)
  0  0.4747E-07  0  0.2766E-07  0 -0.1854E-07  0 -0.1588E-07  0  0.1153E-07
   (  4, 20,  3)  (  4, 20,  3)  (  4, 21,  2)  (  4, 21,  2)  (  4, 20,  2)
  0  0.1013E-07  1 -0.3990E-07  0 -0.3489E-07  0 -0.2399E-07  0 -0.1420E-07
   (  4, 20,  2)  (  3, 21,  1)  (  3, 21,  1)  (  3, 21,  1)  (  3, 21,  1)
  0  0.1074E-07  0  0.8833E-08  0  0.6852E-08  1  0.6320E-08
   (  4, 21,  2)  (  4, 21,  2)  (  4, 21,  2)  (  4, 21,  2)



 OUTPUT CONTROL FOR STRESS PERIOD   43   TIME STEP    1
    SAVE HEAD FOR ALL LAYERS
    SAVE DRAWDOWN FOR ALL LAYERS
    SAVE BUDGET
    PRINT BUDGET
 UBDSV1 SAVING "         STORAGE" ON UNIT   9 AT TIME STEP  1, STRESS PERIOD  43
 UBDSV2 SAVING "   CONSTANT HEAD" ON UNIT   9 AT TIME STEP  1, STRESS PERIOD  43
 UBDSV1 SAVING "FLOW RIGHT FACE " ON UNIT   9 AT TIME STEP  1, STRESS PERIOD  43
 UBDSV1 SAVING "FLOW FRONT FACE " ON UNIT   9 AT TIME STEP  1, STRESS PERIOD  43
 UBDSV1 SAVING "FLOW LOWER FACE " ON UNIT   9 AT TIME STEP  1, STRESS PERIOD  43
 UBDSV3 SAVING "        RECHARGE" ON UNIT   9 AT TIME STEP  1, STRESS PERIOD  43

 HEAD WILL BE SAVED ON UNIT   37 AT END OF TIME STEP    1, STRESS PERIOD   43

 DRAWDOWN WILL BE SAVED ON UNIT   38 AT END OF TIME STEP    1, STRESS PERIOD   43
1
  VOLUMETRIC BUDGET FOR ENTIRE MODEL AT END OF TIME STEP    1, STRESS PERIOD  43
  ------------------------------------------------------------------------------

     CUMULATIVE VOLUMES      L**3       RATES FOR THIS TIME STEP      L**3/T
     ------------------                 ------------------------

           IN:                                      IN:
           ---                                      ---
             STORAGE =        8865.1836               STORAGE =       2.4687E-03
       CONSTANT HEAD =       12898.4092         CONSTANT HEAD =       1.4738E-03
            RECHARGE =         507.0645              RECHARGE =       9.7813E-05

            TOTAL IN =       22270.6582              TOTAL IN =       4.0403E-03

          OUT:                                     OUT:
          ----                                     ----
             STORAGE =        4006.2583               STORAGE =           0.0000
       CONSTANT HEAD =       18264.9180         CONSTANT HEAD =       4.0404E-03
            RECHARGE =           0.0000              RECHARGE =           0.0000

           TOTAL OUT =       22271.1758             TOTAL OUT =       4.0404E-03

            IN - OUT =          -0.5176              IN - OUT =      -1.1735E-07

 PERCENT DISCREPANCY =          -0.00     PERCENT DISCREPANCY =          -0.00






         TIME SUMMARY AT END OF TIME STEP    1 IN STRESS PERIOD   43
                    SECONDS     MINUTES      HOURS       DAYS        YEARS
                    -----------------------------------------------------------
   TIME STEP LENGTH  86400.      1440.0      24.000      1.0000     2.73785E-03
 STRESS PERIOD TIME  86400.      1440.0      24.000      1.0000     2.73785E-03
         TOTAL TIME 5.18400E+06  86400.      1440.0      60.000     0.16427    
1
1
                            STRESS PERIOD NO.   44, LENGTH =   86400.00    
                            -----------------------------------------------

                              NUMBER OF TIME STEPS =     1

                               MULTIPLIER FOR DELT =     1.000

                            INITIAL TIME STEP SIZE =   86400.00    

 REUSING RECH FROM LAST STRESS PERIOD

 CHD NO.   LAYER   ROW   COL    START HEAD        END HEAD         IFACE           
 ----------------------------------------------------------------------------------
      1      4      1      1       109.5           109.5           0.000    
      2      5      1      1       109.5           109.5           0.000    
      3      4      1      2       109.5           109.5           0.000    
      4      5      1      2       109.5           109.5           0.000    
      5      4      1      3       109.5           109.5           0.000    
      6      5      1      3       109.5           109.5           0.000    
      7      4      1      4       109.5           109.5           0.000    
      8      5      1      4       109.5           109.5           0.000    
      9      4      1      5       109.5           109.5           0.000    
     10      5      1      5       109.5           109.5           0.000    
     11      4      1      6       109.5           109.5           0.000    
     12      5      1      6       109.5           109.5           0.000    
     13      4      1      7       109.5           109.5           0.000    
     14      5      1      7       109.5           109.5           0.000    
     15      4      1      8       109.5           109.5           0.000    
     16      5      1      8       109.5           109.5           0.000    
     17      4      1      9       109.5           109.5           0.000    
     18      5      1      9       109.5           109.5           0.000    
     19      4      1     10       109.5           109.5           0.000    
     20      5      1     10       109.5           109.5           0.000    
     21      4      1     11       109.5           109.5           0.000    
     22      5      1     11       109.5           109.5           0.000    
     23      4      1     12       109.5           109.5           0.000    
     24      5      1     12       109.5           109.5           0.000    
     25      4      1     13       109.5           109.5           0.000    
     26      5      1     13       109.5           109.5           0.000    
     27      4      1     14       109.5           109.5           0.000    
     28      5      1     14       109.5           109.5           0.000    
     29      4      1     15       109.5           109.5           0.000    
     30      5      1     15       109.5           109.5           0.000    
     31      4      1     16       109.5           109.5           0.000    
     32      5      1     16       109.5           109.5           0.000    
     33      4      1     17       109.5           109.5           0.000    
     34      5      1     17       109.5           109.5           0.000    
     35      4     17     17       109.3           109.4           0.000    
     36      5     17     17       109.3           109.4           0.000    
     37      4     18     17       109.3           109.4           0.000    
     38      5     18     17       109.3           109.4           0.000    
     39      4     18     16       109.3           109.4           0.000    
     40      5     18     16       109.3           109.4           0.000    
     41      4     19     16       109.3           109.4           0.000    
     42      5     19     16       109.3           109.4           0.000    
     43      4     19     15       109.3           109.4           0.000    
     44      5     19     15       109.3           109.4           0.000    
     45      4     20     15       109.3           109.4           0.000    
     46      5     20     15       109.3           109.4           0.000    
     47      4     20     14       109.3           109.4           0.000    
     48      5     20     14       109.3           109.4           0.000    
     49      4     20     13       109.3           109.4           0.000    
     50      5     20     13       109.3           109.4           0.000    
     51      4     20     12       109.3           109.4           0.000    
     52      5     20     12       109.3           109.4           0.000    
     53      4     20     11       109.3           109.4           0.000    
     54      5     20     11       109.3           109.4           0.000    
     55      4     21     11       109.3           109.4           0.000    
     56      5     21     11       109.3           109.4           0.000    
     57      4     21     10       109.3           109.4           0.000    
     58      5     21     10       109.3           109.4           0.000    
     59      4     21      9       109.3           109.4           0.000    
     60      5     21      9       109.3           109.4           0.000    
     61      4     21      8       109.3           109.4           0.000    
     62      5     21      8       109.3           109.4           0.000    
     63      4     21      7       109.3           109.4           0.000    
     64      5     21      7       109.3           109.4           0.000    
     65      4     21      6       109.3           109.4           0.000    
     66      5     21      6       109.3           109.4           0.000    
     67      4     21      5       109.3           109.4           0.000    
     68      5     21      5       109.3           109.4           0.000    
     69      4     22      5       109.3           109.4           0.000    
     70      5     22      5       109.3           109.4           0.000    
     71      4     22      4       109.3           109.4           0.000    
     72      5     22      4       109.3           109.4           0.000    
     73      4     22      3       109.3           109.4           0.000    
     74      5     22      3       109.3           109.4           0.000    
     75      4     22      2       109.3           109.4           0.000    
     76      5     22      2       109.3           109.4           0.000    
     77      4     22      1       109.3           109.4           0.000    
     78      5     22      1       109.3           109.4           0.000    


     78 TIME-VARIANT SPECIFIED-HEAD CELLS

 SOLVING FOR HEAD 


     4 CALLS TO PCG ROUTINE FOR TIME STEP   1 IN STRESS PERIOD   44
    67 TOTAL ITERATIONS

 MAXIMUM HEAD CHANGE FOR EACH ITERATION (1 INDICATES THE FIRST INNER ITERATION):

    HEAD CHANGE    HEAD CHANGE    HEAD CHANGE    HEAD CHANGE    HEAD CHANGE 
   LAYER,ROW,COL  LAYER,ROW,COL  LAYER,ROW,COL  LAYER,ROW,COL  LAYER,ROW,COL
 ---------------------------------------------------------------------------
  1  0.3099      0 -0.1486      0 -0.1137      0  0.1946      0 -0.1146    
   (  5, 21,  2)  (  5, 20,  1)  (  5, 20,  1)  (  5, 19,  1)  (  5, 17,  1)
  0  0.7241E-01  0  0.6191E-01  0 -0.3818E-01  0  0.3266E-01  0 -0.1494E-01
   (  5, 15,  1)  (  5, 17,  1)  (  5, 20,  1)  (  5, 19,  1)  (  5, 17,  1)
  0 -0.1438E-01  0  0.9158E-02  0 -0.6478E-02  0  0.4239E-02  0 -0.3298E-02
   (  5, 18,  1)  (  5, 15,  3)  (  5, 17,  3)  (  5, 13,  1)  (  5, 12,  1)
  0 -0.2739E-02  0  0.1729E-02  0 -0.1430E-02  0  0.7832E-03  0 -0.7885E-03
   (  5, 13,  5)  (  5, 15,  5)  (  5, 15,  5)  (  5, 20,  1)  (  5, 15,  1)
  0  0.5835E-03  0 -0.4048E-03  0  0.2568E-03  0  0.2078E-03  0 -0.1694E-03
   (  5, 16,  2)  (  5, 18,  3)  (  5, 17,  2)  (  5, 14,  2)  (  5, 13,  1)
  0  0.1054E-03  0  0.8147E-04  0 -0.6699E-04  0  0.3588E-04  0 -0.2887E-04
   (  5, 17,  4)  (  5, 17,  1)  (  5, 18,  1)  (  5,  6,  1)  (  5,  6,  1)
  1  0.1086E-02  0  0.9666E-03  0  0.1081E-02  0  0.1628E-02  0  0.1681E-02
   (  5, 17,  2)  (  5, 20,  2)  (  5, 15,  3)  (  5, 16,  1)  (  5, 18,  1)
  0  0.7427E-03  0  0.6121E-03  0  0.3795E-03  0 -0.2912E-03  0  0.2577E-03
   (  5, 17,  3)  (  5, 20,  1)  (  5, 16,  1)  (  5, 14,  5)  (  5, 12,  5)
  0 -0.2061E-03  0  0.1357E-03  0 -0.1018E-03  0  0.8965E-04  0 -0.6366E-04
   (  5, 16,  1)  (  5, 14,  1)  (  5, 20,  1)  (  5, 20,  1)  (  5, 19,  1)
  0  0.4640E-04  0 -0.4126E-04  0 -0.2697E-04  0 -0.2746E-04  0  0.2166E-04
   (  5, 18,  1)  (  5, 18,  2)  (  5, 20,  1)  (  5, 19,  3)  (  5, 15,  1)
  0 -0.1352E-04  0  0.1177E-04  0 -0.1018E-04  0  0.5731E-05  0  0.5651E-05
   (  5, 16,  2)  (  5, 20,  1)  (  5, 19,  1)  (  5, 19,  2)  (  5, 18,  5)
  0 -0.2918E-05  0  0.2342E-05  0 -0.1290E-05  0  0.1306E-05  0 -0.9627E-06
   (  5, 17,  5)  (  5, 18,  2)  (  5, 18,  1)  (  5, 18,  2)  (  5, 15,  1)
  1  0.1297E-05  0 -0.1378E-05  0  0.1731E-05  0  0.1437E-05  0 -0.1723E-05
   (  5, 15,  1)  (  5, 17,  2)  (  5, 19,  2)  (  5, 14,  3)  (  5, 16,  4)
  0 -0.8625E-06  1  0.8765E-06
   (  5, 13,  3)  (  5, 19,  1)

 MAXIMUM RESIDUAL FOR EACH ITERATION (1 INDICATES THE FIRST INNER ITERATION):

    RESIDUAL       RESIDUAL       RESIDUAL       RESIDUAL       RESIDUAL    
   LAYER,ROW,COL  LAYER,ROW,COL  LAYER,ROW,COL  LAYER,ROW,COL  LAYER,ROW,COL
 ---------------------------------------------------------------------------
  1 -0.6220E-02  0 -0.5325E-02  0 -0.4453E-02  0 -0.3171E-02  0 -0.2340E-02
   (  3, 17, 17)  (  3, 17, 17)  (  3, 17, 17)  (  3, 17, 17)  (  3, 17, 17)
  0 -0.1533E-02  0 -0.9922E-03  0 -0.6316E-03  0 -0.3716E-03  0 -0.2688E-03
   (  3, 17, 17)  (  3, 20, 11)  (  3, 20, 11)  (  3, 20, 11)  (  4, 16, 17)
  0 -0.2008E-03  0 -0.1522E-03  0 -0.1193E-03  0 -0.1052E-03  0 -0.8048E-04
   (  4, 16, 17)  (  4, 16, 17)  (  4, 16, 17)  (  4, 16, 17)  (  4, 16, 17)
  0 -0.5950E-04  0 -0.4353E-04  0 -0.2921E-04  0 -0.1911E-04  0 -0.1414E-04
   (  4, 16, 17)  (  4, 16, 17)  (  4, 16, 17)  (  4, 16, 17)  (  4, 16, 17)
  0 -0.1083E-04  0 -0.6765E-05  0 -0.3908E-05  0 -0.2573E-05  0 -0.1839E-05
   (  4, 16, 17)  (  4, 16, 17)  (  4, 16, 17)  (  4, 16, 17)  (  4, 16, 17)
  0 -0.1089E-05  0 -0.8988E-06  0 -0.7327E-06  0 -0.5566E-06  0 -0.4350E-06
   (  3, 17, 17)  (  3, 17, 17)  (  3, 17, 17)  (  3, 17, 17)  (  3, 17, 17)
  1 -0.1361E-04  0 -0.1298E-04  0 -0.1149E-04  0 -0.7708E-05  0 -0.5597E-05
   (  3, 20,  2)  (  3, 20,  2)  (  3, 20,  2)  (  3, 20,  2)  (  4, 21,  1)
  0  0.4976E-05  0 -0.5424E-05  0  0.4498E-05  0  0.3579E-05  0  0.2621E-05
   (  4, 20,  2)  (  4, 21,  1)  (  4, 20,  2)  (  4, 20,  2)  (  4, 21,  2)
  0  0.2491E-05  0  0.2313E-05  0  0.2118E-05  0  0.1660E-05  0  0.1182E-05
   (  4, 21,  2)  (  4, 21,  2)  (  4, 21,  2)  (  4, 21,  2)  (  4, 21,  2)
  0  0.8384E-06  0  0.6825E-06  0  0.3920E-06  0 -0.2492E-06  0 -0.2008E-06
   (  4, 21,  2)  (  4, 21,  2)  (  4, 21,  2)  (  4, 19,  2)  (  4, 20,  2)
  0 -0.1827E-06  0 -0.1255E-06  0  0.8120E-07  0  0.7742E-07  0  0.5396E-07
   (  4, 20,  2)  (  4, 20,  2)  (  4, 20,  3)  (  4, 20,  3)  (  4, 20,  3)
  0 -0.4179E-07  0 -0.2853E-07  0 -0.2406E-07  0 -0.1684E-07  0 -0.1372E-07
   (  4, 21,  2)  (  4, 21,  2)  (  4, 21,  2)  (  4, 21,  2)  (  4, 21,  2)
  1  0.2099E-07  0  0.1919E-07  0  0.1514E-07  0  0.1201E-07  0  0.6503E-08
   (  2, 19,  4)  (  2, 19,  4)  (  2, 19,  4)  (  2, 19,  4)  (  2, 19,  4)
  0  0.4584E-08  1  0.4452E-08
   (  2, 19,  4)  (  2, 19,  4)



 OUTPUT CONTROL FOR STRESS PERIOD   44   TIME STEP    1
    SAVE HEAD FOR ALL LAYERS
    SAVE DRAWDOWN FOR ALL LAYERS
    SAVE BUDGET
    PRINT BUDGET
 UBDSV1 SAVING "         STORAGE" ON UNIT   9 AT TIME STEP  1, STRESS PERIOD  44
 UBDSV2 SAVING "   CONSTANT HEAD" ON UNIT   9 AT TIME STEP  1, STRESS PERIOD  44
 UBDSV1 SAVING "FLOW RIGHT FACE " ON UNIT   9 AT TIME STEP  1, STRESS PERIOD  44
 UBDSV1 SAVING "FLOW FRONT FACE " ON UNIT   9 AT TIME STEP  1, STRESS PERIOD  44
 UBDSV1 SAVING "FLOW LOWER FACE " ON UNIT   9 AT TIME STEP  1, STRESS PERIOD  44
 UBDSV3 SAVING "        RECHARGE" ON UNIT   9 AT TIME STEP  1, STRESS PERIOD  44

 HEAD WILL BE SAVED ON UNIT   37 AT END OF TIME STEP    1, STRESS PERIOD   44

 DRAWDOWN WILL BE SAVED ON UNIT   38 AT END OF TIME STEP    1, STRESS PERIOD   44
1
  VOLUMETRIC BUDGET FOR ENTIRE MODEL AT END OF TIME STEP    1, STRESS PERIOD  44
  ------------------------------------------------------------------------------

     CUMULATIVE VOLUMES      L**3       RATES FOR THIS TIME STEP      L**3/T
     ------------------                 ------------------------

           IN:                                      IN:
           ---                                      ---
             STORAGE =        8865.1836               STORAGE =           0.0000
       CONSTANT HEAD =       13071.4072         CONSTANT HEAD =       2.0023E-03
            RECHARGE =         515.5155              RECHARGE =       9.7813E-05

            TOTAL IN =       22452.1055              TOTAL IN =       2.1001E-03

          OUT:                                     OUT:
          ----                                     ----
             STORAGE =        4149.7847               STORAGE =       1.6612E-03
       CONSTANT HEAD =       18302.8496         CONSTANT HEAD =       4.3902E-04
            RECHARGE =           0.0000              RECHARGE =           0.0000

           TOTAL OUT =       22452.6348             TOTAL OUT =       2.1002E-03

            IN - OUT =          -0.5293              IN - OUT =      -9.9652E-08

 PERCENT DISCREPANCY =          -0.00     PERCENT DISCREPANCY =          -0.00






         TIME SUMMARY AT END OF TIME STEP    1 IN STRESS PERIOD   44
                    SECONDS     MINUTES      HOURS       DAYS        YEARS
                    -----------------------------------------------------------
   TIME STEP LENGTH  86400.      1440.0      24.000      1.0000     2.73785E-03
 STRESS PERIOD TIME  86400.      1440.0      24.000      1.0000     2.73785E-03
         TOTAL TIME 5.27040E+06  87840.      1464.0      61.000     0.16701    
1
1
                            STRESS PERIOD NO.   45, LENGTH =   172800.0    
                            -----------------------------------------------

                              NUMBER OF TIME STEPS =     2

                               MULTIPLIER FOR DELT =     1.000

                            INITIAL TIME STEP SIZE =   86400.00    

 REUSING RECH FROM LAST STRESS PERIOD

 CHD NO.   LAYER   ROW   COL    START HEAD        END HEAD         IFACE           
 ----------------------------------------------------------------------------------
      1      4      1      1       109.5           109.6           0.000    
      2      5      1      1       109.5           109.6           0.000    
      3      4      1      2       109.5           109.6           0.000    
      4      5      1      2       109.5           109.6           0.000    
      5      4      1      3       109.5           109.6           0.000    
      6      5      1      3       109.5           109.6           0.000    
      7      4      1      4       109.5           109.6           0.000    
      8      5      1      4       109.5           109.6           0.000    
      9      4      1      5       109.5           109.6           0.000    
     10      5      1      5       109.5           109.6           0.000    
     11      4      1      6       109.5           109.6           0.000    
     12      5      1      6       109.5           109.6           0.000    
     13      4      1      7       109.5           109.6           0.000    
     14      5      1      7       109.5           109.6           0.000    
     15      4      1      8       109.5           109.6           0.000    
     16      5      1      8       109.5           109.6           0.000    
     17      4      1      9       109.5           109.6           0.000    
     18      5      1      9       109.5           109.6           0.000    
     19      4      1     10       109.5           109.6           0.000    
     20      5      1     10       109.5           109.6           0.000    
     21      4      1     11       109.5           109.6           0.000    
     22      5      1     11       109.5           109.6           0.000    
     23      4      1     12       109.5           109.6           0.000    
     24      5      1     12       109.5           109.6           0.000    
     25      4      1     13       109.5           109.6           0.000    
     26      5      1     13       109.5           109.6           0.000    
     27      4      1     14       109.5           109.6           0.000    
     28      5      1     14       109.5           109.6           0.000    
     29      4      1     15       109.5           109.6           0.000    
     30      5      1     15       109.5           109.6           0.000    
     31      4      1     16       109.5           109.6           0.000    
     32      5      1     16       109.5           109.6           0.000    
     33      4      1     17       109.5           109.6           0.000    
     34      5      1     17       109.5           109.6           0.000    
     35      4     17     17       109.4           109.4           0.000    
     36      5     17     17       109.4           109.4           0.000    
     37      4     18     17       109.4           109.4           0.000    
     38      5     18     17       109.4           109.4           0.000    
     39      4     18     16       109.4           109.3           0.000    
     40      5     18     16       109.4           109.3           0.000    
     41      4     19     16       109.4           109.3           0.000    
     42      5     19     16       109.4           109.3           0.000    
     43      4     19     15       109.4           109.3           0.000    
     44      5     19     15       109.4           109.3           0.000    
     45      4     20     15       109.4           109.3           0.000    
     46      5     20     15       109.4           109.3           0.000    
     47      4     20     14       109.4           109.3           0.000    
     48      5     20     14       109.4           109.3           0.000    
     49      4     20     13       109.4           109.3           0.000    
     50      5     20     13       109.4           109.3           0.000    
     51      4     20     12       109.4           109.3           0.000    
     52      5     20     12       109.4           109.3           0.000    
     53      4     20     11       109.4           109.3           0.000    
     54      5     20     11       109.4           109.3           0.000    
     55      4     21     11       109.4           109.3           0.000    
     56      5     21     11       109.4           109.3           0.000    
     57      4     21     10       109.4           109.3           0.000    
     58      5     21     10       109.4           109.3           0.000    
     59      4     21      9       109.4           109.3           0.000    
     60      5     21      9       109.4           109.3           0.000    
     61      4     21      8       109.4           109.3           0.000    
     62      5     21      8       109.4           109.3           0.000    
     63      4     21      7       109.4           109.3           0.000    
     64      5     21      7       109.4           109.3           0.000    
     65      4     21      6       109.4           109.3           0.000    
     66      5     21      6       109.4           109.3           0.000    
     67      4     21      5       109.4           109.3           0.000    
     68      5     21      5       109.4           109.3           0.000    
     69      4     22      5       109.4           109.3           0.000    
     70      5     22      5       109.4           109.3           0.000    
     71      4     22      4       109.4           109.3           0.000    
     72      5     22      4       109.4           109.3           0.000    
     73      4     22      3       109.4           109.3           0.000    
     74      5     22      3       109.4           109.3           0.000    
     75      4     22      2       109.4           109.3           0.000    
     76      5     22      2       109.4           109.3           0.000    
     77      4     22      1       109.4           109.3           0.000    
     78      5     22      1       109.4           109.3           0.000    


     78 TIME-VARIANT SPECIFIED-HEAD CELLS

 SOLVING FOR HEAD 


     3 CALLS TO PCG ROUTINE FOR TIME STEP   1 IN STRESS PERIOD   45
    47 TOTAL ITERATIONS

 MAXIMUM HEAD CHANGE FOR EACH ITERATION (1 INDICATES THE FIRST INNER ITERATION):

    HEAD CHANGE    HEAD CHANGE    HEAD CHANGE    HEAD CHANGE    HEAD CHANGE 
   LAYER,ROW,COL  LAYER,ROW,COL  LAYER,ROW,COL  LAYER,ROW,COL  LAYER,ROW,COL
 ---------------------------------------------------------------------------
  1 -0.5536E-01  0  0.3822E-01  0 -0.2968E-01  0  0.2428E-01  0 -0.3153E-01
   (  5, 21,  2)  (  5, 18,  1)  (  5, 16,  2)  (  5, 14,  2)  (  5, 19,  1)
  0 -0.1959E-01  0  0.1622E-01  0  0.1263E-01  0 -0.1027E-01  0  0.6131E-02
   (  5, 20,  1)  (  5, 18,  1)  (  5, 19,  1)  (  5, 18,  1)  (  5, 15,  4)
  0 -0.4107E-02  0 -0.2904E-02  0  0.2922E-02  0 -0.2246E-02  0  0.1362E-02
   (  5, 17,  3)  (  5, 15,  1)  (  5, 16,  2)  (  5, 12,  5)  (  5, 19,  1)
  0 -0.1202E-02  0  0.1225E-02  0  0.7525E-03  0  0.9544E-03  0  0.3361E-03
   (  5, 18,  1)  (  5, 18,  2)  (  5, 16,  3)  (  5, 19,  3)  (  5, 18,  5)
  0 -0.3241E-03  0 -0.2114E-03  0  0.1921E-03  0 -0.1306E-03  0  0.1158E-03
   (  5, 17,  5)  (  5, 16,  2)  (  5, 16,  1)  (  5, 19,  1)  (  5, 19,  2)
  0 -0.9507E-04  0  0.6231E-04  0 -0.3149E-04  0  0.3211E-04  0  0.1803E-04
   (  5, 20,  3)  (  5, 19,  2)  (  5, 18,  1)  (  5, 18,  1)  (  5, 11,  4)
  1  0.1703E-04  0 -0.1985E-04  0 -0.2035E-04  0  0.1846E-04  0  0.1185E-04
   (  5, 15,  2)  (  5, 18,  3)  (  5, 20,  1)  (  5,  6,  1)  (  5, 18,  1)
  0 -0.1334E-04  0  0.1170E-04  0 -0.7254E-05  0  0.6013E-05  0 -0.4887E-05
   (  5, 19,  1)  (  5, 18,  1)  (  5, 10,  3)  (  5, 20,  1)  (  5, 16,  4)
  0  0.3137E-05  0 -0.3707E-05  0 -0.2346E-05  0  0.1750E-05  0 -0.1569E-05
   (  5, 16,  1)  (  5, 14,  1)  (  5, 15,  4)  (  5, 19,  4)  (  5, 19,  3)
  0  0.7149E-06  1 -0.4770E-06
   (  5, 20,  2)  (  5, 17,  3)

 MAXIMUM RESIDUAL FOR EACH ITERATION (1 INDICATES THE FIRST INNER ITERATION):

    RESIDUAL       RESIDUAL       RESIDUAL       RESIDUAL       RESIDUAL    
   LAYER,ROW,COL  LAYER,ROW,COL  LAYER,ROW,COL  LAYER,ROW,COL  LAYER,ROW,COL
 ---------------------------------------------------------------------------
  1  0.1516E-02  0  0.1352E-02  0  0.1211E-02  0  0.1017E-02  0  0.7916E-03
   (  3, 17, 17)  (  3, 17, 17)  (  3, 17, 17)  (  3, 17, 17)  (  3, 17, 17)
  0  0.5762E-03  0  0.3788E-03  0  0.2293E-03  0  0.1364E-03  0  0.8479E-04
   (  3, 17, 17)  (  3, 17, 17)  (  3, 20, 11)  (  3, 20, 11)  (  3, 20, 11)
  0  0.6432E-04  0  0.5512E-04  0  0.5072E-04  0  0.3980E-04  0  0.3125E-04
   (  4, 16, 17)  (  4, 16, 17)  (  4, 16, 17)  (  4, 16, 17)  (  4, 16, 17)
  0  0.2523E-04  0  0.2118E-04  0  0.1550E-04  0  0.1094E-04  0  0.7507E-05
   (  4, 16, 17)  (  4, 16, 17)  (  4, 16, 17)  (  4, 16, 17)  (  4, 16, 17)
  0  0.5178E-05  0  0.4527E-05  0  0.3341E-05  0  0.2754E-05  0  0.1826E-05
   (  4, 16, 17)  (  4, 16, 17)  (  4, 16, 17)  (  4, 16, 17)  (  4, 16, 17)
  0  0.1069E-05  0 -0.5963E-06  0 -0.5288E-06  0 -0.3200E-06  0 -0.2116E-06
   (  4, 16, 17)  (  3, 21,  6)  (  3, 21,  5)  (  3, 21,  5)  (  3, 21,  5)
  1 -0.2493E-06  0 -0.2348E-06  0 -0.1906E-06  0 -0.1376E-06  0 -0.1181E-06
   (  3, 21,  5)  (  3, 21,  5)  (  3, 21,  5)  (  3, 21,  5)  (  3, 21,  5)
  0 -0.8387E-07  0 -0.6097E-07  0  0.4626E-07  0  0.4080E-07  0  0.3283E-07
   (  3, 21,  5)  (  3, 21,  5)  (  4, 20,  2)  (  4, 20,  2)  (  4, 20,  2)
  0  0.2820E-07  0  0.2683E-07  0  0.2408E-07  0  0.1666E-07  0  0.1310E-07
   (  4, 20,  2)  (  4, 20,  2)  (  4, 20,  2)  (  4, 20,  2)  (  4, 20,  2)
  0  0.9174E-08  1  0.7623E-08
   (  4, 20,  2)  (  4, 20,  2)



 OUTPUT CONTROL FOR STRESS PERIOD   45   TIME STEP    1
    SAVE HEAD FOR ALL LAYERS
    SAVE DRAWDOWN FOR ALL LAYERS
    SAVE BUDGET
    PRINT BUDGET
 UBDSV1 SAVING "         STORAGE" ON UNIT   9 AT TIME STEP  1, STRESS PERIOD  45
 UBDSV2 SAVING "   CONSTANT HEAD" ON UNIT   9 AT TIME STEP  1, STRESS PERIOD  45
 UBDSV1 SAVING "FLOW RIGHT FACE " ON UNIT   9 AT TIME STEP  1, STRESS PERIOD  45
 UBDSV1 SAVING "FLOW FRONT FACE " ON UNIT   9 AT TIME STEP  1, STRESS PERIOD  45
 UBDSV1 SAVING "FLOW LOWER FACE " ON UNIT   9 AT TIME STEP  1, STRESS PERIOD  45
 UBDSV3 SAVING "        RECHARGE" ON UNIT   9 AT TIME STEP  1, STRESS PERIOD  45

 HEAD WILL BE SAVED ON UNIT   37 AT END OF TIME STEP    1, STRESS PERIOD   45

 DRAWDOWN WILL BE SAVED ON UNIT   38 AT END OF TIME STEP    1, STRESS PERIOD   45
1
  VOLUMETRIC BUDGET FOR ENTIRE MODEL AT END OF TIME STEP    1, STRESS PERIOD  45
  ------------------------------------------------------------------------------

     CUMULATIVE VOLUMES      L**3       RATES FOR THIS TIME STEP      L**3/T
     ------------------                 ------------------------

           IN:                                      IN:
           ---                                      ---
             STORAGE =        8872.1279               STORAGE =       8.0376E-05
       CONSTANT HEAD =       13244.3447         CONSTANT HEAD =       2.0016E-03
            RECHARGE =         523.9666              RECHARGE =       9.7813E-05

            TOTAL IN =       22640.4395              TOTAL IN =       2.1798E-03

          OUT:                                     OUT:
          ----                                     ----
             STORAGE =        4173.0493               STORAGE =       2.6927E-04
       CONSTANT HEAD =       18467.9258         CONSTANT HEAD =       1.9106E-03
            RECHARGE =           0.0000              RECHARGE =           0.0000

           TOTAL OUT =       22640.9746             TOTAL OUT =       2.1799E-03

            IN - OUT =          -0.5352              IN - OUT =      -8.4285E-08

 PERCENT DISCREPANCY =          -0.00     PERCENT DISCREPANCY =          -0.00






         TIME SUMMARY AT END OF TIME STEP    1 IN STRESS PERIOD   45
                    SECONDS     MINUTES      HOURS       DAYS        YEARS
                    -----------------------------------------------------------
   TIME STEP LENGTH  86400.      1440.0      24.000      1.0000     2.73785E-03
 STRESS PERIOD TIME  86400.      1440.0      24.000      1.0000     2.73785E-03
         TOTAL TIME 5.35680E+06  89280.      1488.0      62.000     0.16975    
1

 SOLVING FOR HEAD 
     3 CALLS TO PCG ROUTINE FOR TIME STEP   2 IN STRESS PERIOD   45
    49 TOTAL ITERATIONS

 MAXIMUM HEAD CHANGE FOR EACH ITERATION (1 INDICATES THE FIRST INNER ITERATION):

    HEAD CHANGE    HEAD CHANGE    HEAD CHANGE    HEAD CHANGE    HEAD CHANGE 
   LAYER,ROW,COL  LAYER,ROW,COL  LAYER,ROW,COL  LAYER,ROW,COL  LAYER,ROW,COL
 ---------------------------------------------------------------------------
  1 -0.5391E-01  0  0.3577E-01  0 -0.3067E-01  0 -0.2364E-01  0 -0.3307E-01
   (  5, 21,  2)  (  5, 17,  1)  (  5, 16,  2)  (  5, 17,  1)  (  5, 19,  1)
  0 -0.1866E-01  0  0.1688E-01  0  0.1272E-01  0 -0.1078E-01  0  0.6731E-02
   (  5, 20,  1)  (  5, 18,  1)  (  5, 17,  3)  (  5, 18,  1)  (  5, 18,  4)
  0 -0.5878E-02  0  0.3035E-02  0  0.3162E-02  0 -0.2356E-02  0 -0.1752E-02
   (  5, 17,  3)  (  5, 16,  2)  (  5, 13,  5)  (  5, 12,  5)  (  5, 19,  3)
  0  0.1295E-02  0  0.1024E-02  0  0.9229E-03  0  0.9699E-03  0  0.5416E-03
   (  5, 18,  2)  (  5, 13,  2)  (  5, 16,  1)  (  5, 19,  3)  (  5, 17,  2)
  0 -0.2865E-03  0 -0.3075E-03  0 -0.2062E-03  0  0.1105E-03  0 -0.8176E-04
   (  5, 16,  1)  (  5, 17,  5)  (  5, 19,  2)  (  5, 20,  3)  (  5, 15,  5)
  0 -0.4963E-04  0  0.7880E-04  0 -0.5351E-04  0 -0.3752E-04  0  0.2936E-04
   (  5, 18,  2)  (  5, 19,  2)  (  5, 19,  1)  (  5, 16,  1)  (  5, 18,  1)
  1  0.7350E-04  0  0.4558E-04  0 -0.5298E-04  0  0.7187E-04  0  0.5010E-04
   (  5, 21,  1)  (  5, 14,  2)  (  5, 19,  1)  (  5, 18,  2)  (  5, 19,  1)
  0  0.3469E-04  0  0.3191E-04  0 -0.1605E-04  0  0.1207E-04  0 -0.1040E-04
   (  5, 16,  3)  (  5, 20,  1)  (  5, 16,  3)  (  5, 15,  4)  (  5, 15,  5)
  0  0.6336E-05  0 -0.4099E-05  0 -0.3622E-05  0  0.4012E-05  0 -0.1920E-05
   (  5, 14,  5)  (  5, 19,  3)  (  5, 16,  2)  (  5, 18,  3)  (  5, 19,  2)
  0 -0.1452E-05  0  0.2280E-05  0  0.9629E-06  1  0.7670E-06
   (  5, 19,  2)  (  5, 19,  3)  (  5, 17,  3)  (  5, 15,  3)

 MAXIMUM RESIDUAL FOR EACH ITERATION (1 INDICATES THE FIRST INNER ITERATION):

    RESIDUAL       RESIDUAL       RESIDUAL       RESIDUAL       RESIDUAL    
   LAYER,ROW,COL  LAYER,ROW,COL  LAYER,ROW,COL  LAYER,ROW,COL  LAYER,ROW,COL
 ---------------------------------------------------------------------------
  1  0.1541E-02  0  0.1389E-02  0  0.1251E-02  0  0.1067E-02  0  0.8537E-03
   (  3, 17, 17)  (  3, 17, 17)  (  3, 17, 17)  (  3, 17, 17)  (  3, 17, 17)
  0  0.6462E-03  0  0.4378E-03  0  0.2707E-03  0  0.1668E-03  0  0.1084E-03
   (  3, 17, 17)  (  3, 17, 17)  (  3, 20, 11)  (  3, 20, 11)  (  3, 20, 11)
  0  0.7293E-04  0  0.6448E-04  0  0.5136E-04  0  0.4104E-04  0  0.3238E-04
   (  3, 20, 11)  (  3, 20, 11)  (  4, 16, 17)  (  4, 16, 17)  (  4, 16, 17)
  0  0.2875E-04  0  0.2209E-04  0  0.1613E-04  0  0.1164E-04  0  0.8359E-05
   (  4, 16, 17)  (  4, 16, 17)  (  4, 16, 17)  (  4, 16, 17)  (  4, 16, 17)
  0  0.7749E-05  0  0.5423E-05  0  0.3601E-05  0  0.2228E-05  0 -0.1431E-05
   (  4, 16, 17)  (  4, 16, 17)  (  4, 16, 17)  (  4, 16, 17)  (  3, 21,  6)
  0 -0.1252E-05  0 -0.7835E-06  0 -0.6274E-06  0 -0.3960E-06  0 -0.3373E-06
   (  3, 21,  6)  (  3, 21,  6)  (  3, 21,  6)  (  3, 21,  5)  (  3, 21,  5)
  1 -0.1639E-05  0 -0.1490E-05  0 -0.1278E-05  0 -0.9927E-06  0 -0.6125E-06
   (  3, 21,  1)  (  3, 21,  1)  (  3, 21,  1)  (  3, 21,  1)  (  3, 21,  1)
  0 -0.3754E-06  0  0.2576E-06  0  0.2290E-06  0  0.1972E-06  0  0.1685E-06
   (  3, 21,  1)  (  4, 21,  2)  (  4, 21,  2)  (  4, 21,  2)  (  4, 21,  2)
  0  0.1346E-06  0  0.8704E-07  0  0.7347E-07  0  0.4678E-07  0  0.2821E-07
   (  4, 21,  2)  (  4, 21,  2)  (  4, 21,  2)  (  4, 21,  2)  (  4, 21,  2)
  0  0.2544E-07  0 -0.2142E-07  0 -0.1638E-07  1 -0.1585E-07
   (  4, 20,  3)  (  4, 20,  1)  (  4, 20,  1)  (  4, 20,  1)



 OUTPUT CONTROL FOR STRESS PERIOD   45   TIME STEP    2
    SAVE HEAD FOR ALL LAYERS
    SAVE DRAWDOWN FOR ALL LAYERS
    SAVE BUDGET
    PRINT BUDGET
 UBDSV1 SAVING "         STORAGE" ON UNIT   9 AT TIME STEP  2, STRESS PERIOD  45
 UBDSV2 SAVING "   CONSTANT HEAD" ON UNIT   9 AT TIME STEP  2, STRESS PERIOD  45
 UBDSV1 SAVING "FLOW RIGHT FACE " ON UNIT   9 AT TIME STEP  2, STRESS PERIOD  45
 UBDSV1 SAVING "FLOW FRONT FACE " ON UNIT   9 AT TIME STEP  2, STRESS PERIOD  45
 UBDSV1 SAVING "FLOW LOWER FACE " ON UNIT   9 AT TIME STEP  2, STRESS PERIOD  45
 UBDSV3 SAVING "        RECHARGE" ON UNIT   9 AT TIME STEP  2, STRESS PERIOD  45

 HEAD WILL BE SAVED ON UNIT   37 AT END OF TIME STEP    2, STRESS PERIOD   45

 DRAWDOWN WILL BE SAVED ON UNIT   38 AT END OF TIME STEP    2, STRESS PERIOD   45
1
  VOLUMETRIC BUDGET FOR ENTIRE MODEL AT END OF TIME STEP    2, STRESS PERIOD  45
  ------------------------------------------------------------------------------

     CUMULATIVE VOLUMES      L**3       RATES FOR THIS TIME STEP      L**3/T
     ------------------                 ------------------------

           IN:                                      IN:
           ---                                      ---
             STORAGE =        8895.6816               STORAGE =       2.7261E-04
       CONSTANT HEAD =       13441.4355         CONSTANT HEAD =       2.2811E-03
            RECHARGE =         532.4176              RECHARGE =       9.7813E-05

            TOTAL IN =       22869.5352              TOTAL IN =       2.6516E-03

          OUT:                                     OUT:
          ----                                     ----
             STORAGE =        4182.0322               STORAGE =       1.0397E-04
       CONSTANT HEAD =       18688.0449         CONSTANT HEAD =       2.5477E-03
            RECHARGE =           0.0000              RECHARGE =           0.0000

           TOTAL OUT =       22870.0781             TOTAL OUT =       2.6517E-03

            IN - OUT =          -0.5430              IN - OUT =      -7.8697E-08

 PERCENT DISCREPANCY =          -0.00     PERCENT DISCREPANCY =          -0.00






         TIME SUMMARY AT END OF TIME STEP    2 IN STRESS PERIOD   45
                    SECONDS     MINUTES      HOURS       DAYS        YEARS
                    -----------------------------------------------------------
   TIME STEP LENGTH  86400.      1440.0      24.000      1.0000     2.73785E-03
 STRESS PERIOD TIME 1.72800E+05  2880.0      48.000      2.0000     5.47570E-03
         TOTAL TIME 5.44320E+06  90720.      1512.0      63.000     0.17248    
1
1
                            STRESS PERIOD NO.   46, LENGTH =   86400.00    
                            -----------------------------------------------

                              NUMBER OF TIME STEPS =     1

                               MULTIPLIER FOR DELT =     1.000

                            INITIAL TIME STEP SIZE =   86400.00    

 REUSING RECH FROM LAST STRESS PERIOD

 CHD NO.   LAYER   ROW   COL    START HEAD        END HEAD         IFACE           
 ----------------------------------------------------------------------------------
      1      4      1      1       109.6           109.6           0.000    
      2      5      1      1       109.6           109.6           0.000    
      3      4      1      2       109.6           109.6           0.000    
      4      5      1      2       109.6           109.6           0.000    
      5      4      1      3       109.6           109.6           0.000    
      6      5      1      3       109.6           109.6           0.000    
      7      4      1      4       109.6           109.6           0.000    
      8      5      1      4       109.6           109.6           0.000    
      9      4      1      5       109.6           109.6           0.000    
     10      5      1      5       109.6           109.6           0.000    
     11      4      1      6       109.6           109.6           0.000    
     12      5      1      6       109.6           109.6           0.000    
     13      4      1      7       109.6           109.6           0.000    
     14      5      1      7       109.6           109.6           0.000    
     15      4      1      8       109.6           109.6           0.000    
     16      5      1      8       109.6           109.6           0.000    
     17      4      1      9       109.6           109.6           0.000    
     18      5      1      9       109.6           109.6           0.000    
     19      4      1     10       109.6           109.6           0.000    
     20      5      1     10       109.6           109.6           0.000    
     21      4      1     11       109.6           109.6           0.000    
     22      5      1     11       109.6           109.6           0.000    
     23      4      1     12       109.6           109.6           0.000    
     24      5      1     12       109.6           109.6           0.000    
     25      4      1     13       109.6           109.6           0.000    
     26      5      1     13       109.6           109.6           0.000    
     27      4      1     14       109.6           109.6           0.000    
     28      5      1     14       109.6           109.6           0.000    
     29      4      1     15       109.6           109.6           0.000    
     30      5      1     15       109.6           109.6           0.000    
     31      4      1     16       109.6           109.6           0.000    
     32      5      1     16       109.6           109.6           0.000    
     33      4      1     17       109.6           109.6           0.000    
     34      5      1     17       109.6           109.6           0.000    
     35      4     17     17       109.4           109.5           0.000    
     36      5     17     17       109.4           109.5           0.000    
     37      4     18     17       109.4           109.5           0.000    
     38      5     18     17       109.4           109.5           0.000    
     39      4     18     16       109.3           109.5           0.000    
     40      5     18     16       109.3           109.5           0.000    
     41      4     19     16       109.3           109.5           0.000    
     42      5     19     16       109.3           109.5           0.000    
     43      4     19     15       109.3           109.5           0.000    
     44      5     19     15       109.3           109.5           0.000    
     45      4     20     15       109.3           109.5           0.000    
     46      5     20     15       109.3           109.5           0.000    
     47      4     20     14       109.3           109.5           0.000    
     48      5     20     14       109.3           109.5           0.000    
     49      4     20     13       109.3           109.5           0.000    
     50      5     20     13       109.3           109.5           0.000    
     51      4     20     12       109.3           109.5           0.000    
     52      5     20     12       109.3           109.5           0.000    
     53      4     20     11       109.3           109.5           0.000    
     54      5     20     11       109.3           109.5           0.000    
     55      4     21     11       109.3           109.5           0.000    
     56      5     21     11       109.3           109.5           0.000    
     57      4     21     10       109.3           109.5           0.000    
     58      5     21     10       109.3           109.5           0.000    
     59      4     21      9       109.3           109.5           0.000    
     60      5     21      9       109.3           109.5           0.000    
     61      4     21      8       109.3           109.5           0.000    
     62      5     21      8       109.3           109.5           0.000    
     63      4     21      7       109.3           109.5           0.000    
     64      5     21      7       109.3           109.5           0.000    
     65      4     21      6       109.3           109.5           0.000    
     66      5     21      6       109.3           109.5           0.000    
     67      4     21      5       109.3           109.5           0.000    
     68      5     21      5       109.3           109.5           0.000    
     69      4     22      5       109.3           109.5           0.000    
     70      5     22      5       109.3           109.5           0.000    
     71      4     22      4       109.3           109.5           0.000    
     72      5     22      4       109.3           109.5           0.000    
     73      4     22      3       109.3           109.5           0.000    
     74      5     22      3       109.3           109.5           0.000    
     75      4     22      2       109.3           109.5           0.000    
     76      5     22      2       109.3           109.5           0.000    
     77      4     22      1       109.3           109.5           0.000    
     78      5     22      1       109.3           109.5           0.000    


     78 TIME-VARIANT SPECIFIED-HEAD CELLS

 SOLVING FOR HEAD 


     3 CALLS TO PCG ROUTINE FOR TIME STEP   1 IN STRESS PERIOD   46
    58 TOTAL ITERATIONS

 MAXIMUM HEAD CHANGE FOR EACH ITERATION (1 INDICATES THE FIRST INNER ITERATION):

    HEAD CHANGE    HEAD CHANGE    HEAD CHANGE    HEAD CHANGE    HEAD CHANGE 
   LAYER,ROW,COL  LAYER,ROW,COL  LAYER,ROW,COL  LAYER,ROW,COL  LAYER,ROW,COL
 ---------------------------------------------------------------------------
  1  0.3132      0 -0.1920      0  0.1596      0  0.1273      0  0.1835    
   (  5, 21,  2)  (  5, 17,  1)  (  5, 16,  2)  (  5, 17,  1)  (  5, 19,  1)
  0  0.9604E-01  0 -0.8855E-01  0 -0.6630E-01  0  0.5629E-01  0  0.3722E-01
   (  5, 20,  1)  (  5, 18,  1)  (  5, 19,  1)  (  5, 18,  1)  (  5, 19,  1)
  0  0.3070E-01  0 -0.2091E-01  0  0.1711E-01  0  0.1230E-01  0 -0.9502E-02
   (  5, 17,  3)  (  5, 16,  3)  (  5, 14,  1)  (  5, 12,  5)  (  5, 19,  1)
  0  0.6914E-02  0 -0.7039E-02  0 -0.3673E-02  0 -0.4961E-02  0  0.1953E-02
   (  5, 18,  1)  (  5, 18,  2)  (  5, 16,  3)  (  5, 19,  3)  (  5, 18,  2)
  0 -0.1364E-02  0  0.1710E-02  0  0.8655E-03  0  0.7859E-03  0  0.5861E-03
   (  5, 17,  2)  (  5, 16,  1)  (  5, 19,  2)  (  5, 19,  3)  (  5, 18,  5)
  0  0.4408E-03  0 -0.3310E-03  0  0.1937E-03  0 -0.1704E-03  0 -0.9984E-04
   (  5, 20,  3)  (  5, 19,  2)  (  5, 18,  2)  (  5, 18,  1)  (  5, 15,  1)
  1  0.6459E-03  0  0.8181E-03  0 -0.8533E-03  0  0.7860E-03  0  0.7194E-03
   (  5, 20,  1)  (  5, 21,  1)  (  5, 19,  1)  (  5, 18,  2)  (  5, 18,  1)
  0  0.6210E-03  0  0.2893E-03  0 -0.1561E-03  0  0.1481E-03  0 -0.1225E-03
   (  5, 19,  1)  (  5, 17,  3)  (  5, 16,  3)  (  5, 16,  4)  (  5, 14,  4)
  0  0.9355E-04  0 -0.4423E-04  0  0.6417E-04  0  0.4916E-04  0 -0.2755E-04
   (  5, 16,  3)  (  5, 16,  1)  (  5, 16,  2)  (  5, 18,  3)  (  5, 19,  4)
  0  0.1630E-04  0 -0.1528E-04  0  0.1131E-04  0 -0.7490E-05  0  0.4812E-05
   (  5, 18,  1)  (  5, 19,  1)  (  5, 14,  5)  (  5, 13,  5)  (  5, 19,  1)
  0  0.5106E-05  0 -0.2952E-05  0  0.4327E-05  0 -0.2621E-05  0  0.1696E-05
   (  5, 17,  3)  (  5, 17,  2)  (  5, 19,  2)  (  5, 15,  5)  (  5, 17,  2)
  0  0.1381E-05  0 -0.7522E-06  1  0.7586E-06
   (  5, 18,  1)  (  5, 19,  2)  (  5, 18,  1)

 MAXIMUM RESIDUAL FOR EACH ITERATION (1 INDICATES THE FIRST INNER ITERATION):

    RESIDUAL       RESIDUAL       RESIDUAL       RESIDUAL       RESIDUAL    
   LAYER,ROW,COL  LAYER,ROW,COL  LAYER,ROW,COL  LAYER,ROW,COL  LAYER,ROW,COL
 ---------------------------------------------------------------------------
  1 -0.8563E-02  0 -0.7770E-02  0 -0.7011E-02  0 -0.5939E-02  0 -0.4702E-02
   (  3, 17, 17)  (  3, 17, 17)  (  3, 17, 17)  (  3, 17, 17)  (  3, 17, 17)
  0 -0.3530E-02  0 -0.2387E-02  0 -0.1460E-02  0 -0.8711E-03  0 -0.5477E-03
   (  3, 17, 17)  (  3, 17, 17)  (  3, 17, 17)  (  3, 20, 11)  (  3, 20, 11)
  0 -0.3683E-03  0 -0.3314E-03  0 -0.2852E-03  0 -0.2320E-03  0 -0.1802E-03
   (  3, 20, 11)  (  4, 16, 17)  (  4, 16, 17)  (  4, 16, 17)  (  4, 16, 17)
  0 -0.1486E-03  0 -0.1230E-03  0 -0.9054E-04  0 -0.6549E-04  0 -0.4508E-04
   (  4, 16, 17)  (  4, 16, 17)  (  4, 16, 17)  (  4, 16, 17)  (  4, 16, 17)
  0 -0.3876E-04  0 -0.3151E-04  0 -0.2643E-04  0 -0.1821E-04  0 -0.1130E-04
   (  4, 16, 17)  (  4, 16, 17)  (  4, 16, 17)  (  4, 16, 17)  (  4, 16, 17)
  0 -0.6637E-05  0 -0.3918E-05  0 -0.3240E-05  0 -0.1667E-05  0 -0.1487E-05
   (  4, 16, 17)  (  4, 16, 17)  (  4, 16, 17)  (  4, 16, 17)  (  4, 16, 17)
  1 -0.1752E-04  0 -0.1619E-04  0 -0.1336E-04  0 -0.8674E-05  0  0.5094E-05
   (  3, 20,  1)  (  3, 21,  1)  (  3, 21,  1)  (  3, 21,  1)  (  4, 21,  2)
  0  0.5264E-05  0  0.4712E-05  0  0.3962E-05  0  0.2956E-05  0  0.2211E-05
   (  4, 21,  2)  (  4, 21,  2)  (  4, 21,  2)  (  4, 21,  2)  (  4, 21,  2)
  0  0.1450E-05  0  0.1294E-05  0  0.7099E-06  0 -0.4633E-06  0 -0.3793E-06
   (  4, 21,  2)  (  4, 21,  2)  (  4, 21,  2)  (  4, 19,  1)  (  4, 19,  1)
  0 -0.3538E-06  0 -0.2747E-06  0 -0.1613E-06  0 -0.1269E-06  0 -0.1120E-06
   (  4, 19,  1)  (  4, 19,  1)  (  4, 19,  1)  (  4, 20,  1)  (  4, 20,  1)
  0 -0.7888E-07  0  0.7072E-07  0  0.4799E-07  0  0.3092E-07  0  0.2224E-07
   (  4, 20,  1)  (  4, 20,  3)  (  4, 20,  2)  (  4, 20,  2)  (  4, 20,  2)
  0  0.1533E-07  0  0.1421E-07  1  0.1320E-07
   (  4, 20,  2)  (  4, 20,  2)  (  4, 20,  2)



 OUTPUT CONTROL FOR STRESS PERIOD   46   TIME STEP    1
    SAVE HEAD FOR ALL LAYERS
    SAVE DRAWDOWN FOR ALL LAYERS
    SAVE BUDGET
    PRINT BUDGET
 UBDSV1 SAVING "         STORAGE" ON UNIT   9 AT TIME STEP  1, STRESS PERIOD  46
 UBDSV2 SAVING "   CONSTANT HEAD" ON UNIT   9 AT TIME STEP  1, STRESS PERIOD  46
 UBDSV1 SAVING "FLOW RIGHT FACE " ON UNIT   9 AT TIME STEP  1, STRESS PERIOD  46
 UBDSV1 SAVING "FLOW FRONT FACE " ON UNIT   9 AT TIME STEP  1, STRESS PERIOD  46
 UBDSV1 SAVING "FLOW LOWER FACE " ON UNIT   9 AT TIME STEP  1, STRESS PERIOD  46
 UBDSV3 SAVING "        RECHARGE" ON UNIT   9 AT TIME STEP  1, STRESS PERIOD  46

 HEAD WILL BE SAVED ON UNIT   37 AT END OF TIME STEP    1, STRESS PERIOD   46

 DRAWDOWN WILL BE SAVED ON UNIT   38 AT END OF TIME STEP    1, STRESS PERIOD   46
1
  VOLUMETRIC BUDGET FOR ENTIRE MODEL AT END OF TIME STEP    1, STRESS PERIOD  46
  ------------------------------------------------------------------------------

     CUMULATIVE VOLUMES      L**3       RATES FOR THIS TIME STEP      L**3/T
     ------------------                 ------------------------

           IN:                                      IN:
           ---                                      ---
             STORAGE =        8895.6816               STORAGE =           0.0000
       CONSTANT HEAD =       13639.2305         CONSTANT HEAD =       2.2893E-03
            RECHARGE =         540.8687              RECHARGE =       9.7813E-05

            TOTAL IN =       23075.7812              TOTAL IN =       2.3871E-03

          OUT:                                     OUT:
          ----                                     ----
             STORAGE =        4380.7075               STORAGE =       2.2995E-03
       CONSTANT HEAD =       18695.6250         CONSTANT HEAD =       8.7725E-05
            RECHARGE =           0.0000              RECHARGE =           0.0000

           TOTAL OUT =       23076.3320             TOTAL OUT =       2.3872E-03

            IN - OUT =          -0.5508              IN - OUT =      -9.6858E-08

 PERCENT DISCREPANCY =          -0.00     PERCENT DISCREPANCY =          -0.00






         TIME SUMMARY AT END OF TIME STEP    1 IN STRESS PERIOD   46
                    SECONDS     MINUTES      HOURS       DAYS        YEARS
                    -----------------------------------------------------------
   TIME STEP LENGTH  86400.      1440.0      24.000      1.0000     2.73785E-03
 STRESS PERIOD TIME  86400.      1440.0      24.000      1.0000     2.73785E-03
         TOTAL TIME 5.52960E+06  92160.      1536.0      64.000     0.17522    
1
1
                            STRESS PERIOD NO.   47, LENGTH =   86400.00    
                            -----------------------------------------------

                              NUMBER OF TIME STEPS =     1

                               MULTIPLIER FOR DELT =     1.000

                            INITIAL TIME STEP SIZE =   86400.00    

 REUSING RECH FROM LAST STRESS PERIOD

 CHD NO.   LAYER   ROW   COL    START HEAD        END HEAD         IFACE           
 ----------------------------------------------------------------------------------
      1      4      1      1       109.6           109.6           0.000    
      2      5      1      1       109.6           109.6           0.000    
      3      4      1      2       109.6           109.6           0.000    
      4      5      1      2       109.6           109.6           0.000    
      5      4      1      3       109.6           109.6           0.000    
      6      5      1      3       109.6           109.6           0.000    
      7      4      1      4       109.6           109.6           0.000    
      8      5      1      4       109.6           109.6           0.000    
      9      4      1      5       109.6           109.6           0.000    
     10      5      1      5       109.6           109.6           0.000    
     11      4      1      6       109.6           109.6           0.000    
     12      5      1      6       109.6           109.6           0.000    
     13      4      1      7       109.6           109.6           0.000    
     14      5      1      7       109.6           109.6           0.000    
     15      4      1      8       109.6           109.6           0.000    
     16      5      1      8       109.6           109.6           0.000    
     17      4      1      9       109.6           109.6           0.000    
     18      5      1      9       109.6           109.6           0.000    
     19      4      1     10       109.6           109.6           0.000    
     20      5      1     10       109.6           109.6           0.000    
     21      4      1     11       109.6           109.6           0.000    
     22      5      1     11       109.6           109.6           0.000    
     23      4      1     12       109.6           109.6           0.000    
     24      5      1     12       109.6           109.6           0.000    
     25      4      1     13       109.6           109.6           0.000    
     26      5      1     13       109.6           109.6           0.000    
     27      4      1     14       109.6           109.6           0.000    
     28      5      1     14       109.6           109.6           0.000    
     29      4      1     15       109.6           109.6           0.000    
     30      5      1     15       109.6           109.6           0.000    
     31      4      1     16       109.6           109.6           0.000    
     32      5      1     16       109.6           109.6           0.000    
     33      4      1     17       109.6           109.6           0.000    
     34      5      1     17       109.6           109.6           0.000    
     35      4     17     17       109.5           109.6           0.000    
     36      5     17     17       109.5           109.6           0.000    
     37      4     18     17       109.5           109.6           0.000    
     38      5     18     17       109.5           109.6           0.000    
     39      4     18     16       109.5           109.6           0.000    
     40      5     18     16       109.5           109.6           0.000    
     41      4     19     16       109.5           109.6           0.000    
     42      5     19     16       109.5           109.6           0.000    
     43      4     19     15       109.5           109.6           0.000    
     44      5     19     15       109.5           109.6           0.000    
     45      4     20     15       109.5           109.6           0.000    
     46      5     20     15       109.5           109.6           0.000    
     47      4     20     14       109.5           109.6           0.000    
     48      5     20     14       109.5           109.6           0.000    
     49      4     20     13       109.5           109.6           0.000    
     50      5     20     13       109.5           109.6           0.000    
     51      4     20     12       109.5           109.6           0.000    
     52      5     20     12       109.5           109.6           0.000    
     53      4     20     11       109.5           109.6           0.000    
     54      5     20     11       109.5           109.6           0.000    
     55      4     21     11       109.5           109.6           0.000    
     56      5     21     11       109.5           109.6           0.000    
     57      4     21     10       109.5           109.6           0.000    
     58      5     21     10       109.5           109.6           0.000    
     59      4     21      9       109.5           109.6           0.000    
     60      5     21      9       109.5           109.6           0.000    
     61      4     21      8       109.5           109.6           0.000    
     62      5     21      8       109.5           109.6           0.000    
     63      4     21      7       109.5           109.6           0.000    
     64      5     21      7       109.5           109.6           0.000    
     65      4     21      6       109.5           109.6           0.000    
     66      5     21      6       109.5           109.6           0.000    
     67      4     21      5       109.5           109.6           0.000    
     68      5     21      5       109.5           109.6           0.000    
     69      4     22      5       109.5           109.6           0.000    
     70      5     22      5       109.5           109.6           0.000    
     71      4     22      4       109.5           109.6           0.000    
     72      5     22      4       109.5           109.6           0.000    
     73      4     22      3       109.5           109.6           0.000    
     74      5     22      3       109.5           109.6           0.000    
     75      4     22      2       109.5           109.6           0.000    
     76      5     22      2       109.5           109.6           0.000    
     77      4     22      1       109.5           109.6           0.000    
     78      5     22      1       109.5           109.6           0.000    


     78 TIME-VARIANT SPECIFIED-HEAD CELLS

 SOLVING FOR HEAD 


     4 CALLS TO PCG ROUTINE FOR TIME STEP   1 IN STRESS PERIOD   47
    60 TOTAL ITERATIONS

 MAXIMUM HEAD CHANGE FOR EACH ITERATION (1 INDICATES THE FIRST INNER ITERATION):

    HEAD CHANGE    HEAD CHANGE    HEAD CHANGE    HEAD CHANGE    HEAD CHANGE 
   LAYER,ROW,COL  LAYER,ROW,COL  LAYER,ROW,COL  LAYER,ROW,COL  LAYER,ROW,COL
 ---------------------------------------------------------------------------
  1  0.2544      0 -0.1662      0  0.1463      0  0.1142      0  0.1545    
   (  5, 21,  2)  (  5, 17,  1)  (  5, 16,  2)  (  5, 17,  1)  (  5, 19,  1)
  0  0.9127E-01  0 -0.7914E-01  0 -0.5847E-01  0  0.5278E-01  0 -0.3062E-01
   (  5, 20,  1)  (  5, 18,  1)  (  5, 17,  3)  (  5, 18,  1)  (  5, 18,  4)
  0  0.2393E-01  0 -0.1487E-01  0 -0.1011E-01  0  0.1060E-01  0  0.7085E-02
   (  5, 17,  3)  (  5, 13,  5)  (  5, 16,  2)  (  5, 12,  5)  (  5, 19,  3)
  0 -0.7100E-02  0  0.3361E-02  0 -0.3966E-02  0 -0.4187E-02  0  0.1479E-02
   (  5, 18,  2)  (  5, 18,  1)  (  5, 16,  1)  (  5, 19,  3)  (  5, 18,  3)
  0  0.1421E-02  0 -0.9267E-03  0  0.1010E-02  0  0.8646E-03  0  0.4874E-03
   (  5, 20,  1)  (  5, 19,  1)  (  5, 16,  2)  (  5, 19,  2)  (  5, 18,  5)
  0  0.3374E-03  0  0.2511E-03  0  0.1482E-03  0 -0.1885E-03  0  0.1021E-03
   (  5, 20,  3)  (  5, 14,  2)  (  5, 19,  2)  (  5, 18,  1)  (  5, 17,  1)
  1 -0.3393E-03  0  0.6079E-03  0 -0.4482E-03  0 -0.2796E-03  0  0.1525E-03
   (  5, 17,  2)  (  5, 14,  1)  (  5, 20,  1)  (  5,  6,  1)  (  5, 19,  1)
  0 -0.1325E-03  0 -0.8553E-04  0 -0.3939E-04  0 -0.3645E-04  0  0.2585E-04
   (  5, 18,  1)  (  5,  6,  1)  (  5, 18,  4)  (  5, 19,  1)  (  5, 19,  4)
  0 -0.1858E-04  0  0.2182E-04  0  0.1400E-04  0 -0.1345E-04  0  0.7222E-05
   (  5, 16,  1)  (  5, 14,  1)  (  5, 17,  5)  (  5, 16,  4)  (  5, 13,  5)
  0 -0.8054E-05  0  0.6065E-05  0 -0.3326E-05  0  0.3066E-05  0  0.2877E-05
   (  5, 14,  5)  (  5, 17,  2)  (  5, 18,  1)  (  5, 19,  4)  (  5, 15,  2)
  0 -0.1929E-05  0  0.2007E-05  0 -0.1042E-05  0 -0.6743E-06  1 -0.1098E-05
   (  5, 17,  2)  (  5, 17,  5)  (  5, 17,  1)  (  5, 20,  3)  (  5, 20,  1)
  0  0.1449E-05  0 -0.1176E-05  0  0.1252E-05  0 -0.9050E-06  1  0.6008E-06
   (  5, 18,  1)  (  5, 13,  1)  (  5, 16,  2)  (  5, 17,  1)  (  5, 17,  5)

 MAXIMUM RESIDUAL FOR EACH ITERATION (1 INDICATES THE FIRST INNER ITERATION):

    RESIDUAL       RESIDUAL       RESIDUAL       RESIDUAL       RESIDUAL    
   LAYER,ROW,COL  LAYER,ROW,COL  LAYER,ROW,COL  LAYER,ROW,COL  LAYER,ROW,COL
 ---------------------------------------------------------------------------
  1 -0.7001E-02  0 -0.6309E-02  0 -0.5674E-02  0 -0.4837E-02  0 -0.3870E-02
   (  3, 17, 17)  (  3, 17, 17)  (  3, 17, 17)  (  3, 17, 17)  (  3, 17, 17)
  0 -0.2913E-02  0 -0.1948E-02  0 -0.1167E-02  0 -0.6867E-03  0 -0.4322E-03
   (  3, 17, 17)  (  3, 17, 17)  (  3, 17, 17)  (  3, 20, 11)  (  3, 20, 11)
  0 -0.2945E-03  0 -0.2407E-03  0 -0.2291E-03  0 -0.1839E-03  0 -0.1449E-03
   (  4, 16, 17)  (  4, 16, 17)  (  4, 16, 17)  (  4, 16, 17)  (  4, 16, 17)
  0 -0.1079E-03  0 -0.9794E-04  0 -0.7306E-04  0 -0.5240E-04  0 -0.3593E-04
   (  4, 16, 17)  (  4, 16, 17)  (  4, 16, 17)  (  4, 16, 17)  (  4, 16, 17)
  0 -0.2750E-04  0 -0.2371E-04  0 -0.2101E-04  0  0.1505E-04  0  0.9717E-05
   (  4, 16, 17)  (  4, 16, 17)  (  4, 16, 17)  (  3, 21,  6)  (  3, 21,  6)
  0  0.6021E-05  0  0.3274E-05  0  0.2785E-05  0  0.1448E-05  0  0.9082E-06
   (  3, 21,  6)  (  3, 21,  6)  (  3, 21,  6)  (  3, 21,  6)  (  3, 21,  5)
  1 -0.2494E-05  0 -0.1550E-05  0 -0.1208E-05  0 -0.9187E-06  0 -0.8185E-06
   (  3, 20,  4)  (  3, 17, 17)  (  4,  6,  2)  (  3, 17, 17)  (  3, 17, 17)
  0 -0.6279E-06  0 -0.4161E-06  0 -0.3429E-06  0 -0.2639E-06  0 -0.2033E-06
   (  3, 17, 17)  (  3, 17, 17)  (  3, 17, 17)  (  3, 17, 17)  (  3, 17, 17)
  0 -0.1819E-06  0 -0.1439E-06  0 -0.1046E-06  0 -0.8091E-07  0 -0.6123E-07
   (  3, 17, 17)  (  3, 17, 17)  (  3, 17, 17)  (  3, 17, 17)  (  4, 18, 14)
  0 -0.5352E-07  0 -0.4136E-07  0 -0.3670E-07  0 -0.2140E-07  0 -0.1616E-07
   (  4, 18, 14)  (  4, 18, 14)  (  4, 18, 14)  (  4, 18, 14)  (  4, 20,  4)
  0 -0.1347E-07  0 -0.9639E-08  0 -0.7982E-08  0 -0.5938E-08  1  0.6927E-08
   (  4, 20,  4)  (  4, 20,  6)  (  4, 21,  4)  (  4, 21,  4)  (  3, 18, 15)
  0  0.5103E-08  0 -0.4508E-08  0 -0.3342E-08  0  0.2600E-08  1  0.1971E-08
   (  3, 18, 15)  (  5, 16,  2)  (  4,  8,  2)  (  4,  5, 17)  (  4,  5, 17)



 OUTPUT CONTROL FOR STRESS PERIOD   47   TIME STEP    1
    SAVE HEAD FOR ALL LAYERS
    SAVE DRAWDOWN FOR ALL LAYERS
    SAVE BUDGET
    PRINT BUDGET
 UBDSV1 SAVING "         STORAGE" ON UNIT   9 AT TIME STEP  1, STRESS PERIOD  47
 UBDSV2 SAVING "   CONSTANT HEAD" ON UNIT   9 AT TIME STEP  1, STRESS PERIOD  47
 UBDSV1 SAVING "FLOW RIGHT FACE " ON UNIT   9 AT TIME STEP  1, STRESS PERIOD  47
 UBDSV1 SAVING "FLOW FRONT FACE " ON UNIT   9 AT TIME STEP  1, STRESS PERIOD  47
 UBDSV1 SAVING "FLOW LOWER FACE " ON UNIT   9 AT TIME STEP  1, STRESS PERIOD  47
 UBDSV3 SAVING "        RECHARGE" ON UNIT   9 AT TIME STEP  1, STRESS PERIOD  47

 HEAD WILL BE SAVED ON UNIT   37 AT END OF TIME STEP    1, STRESS PERIOD   47

 DRAWDOWN WILL BE SAVED ON UNIT   38 AT END OF TIME STEP    1, STRESS PERIOD   47
1
  VOLUMETRIC BUDGET FOR ENTIRE MODEL AT END OF TIME STEP    1, STRESS PERIOD  47
  ------------------------------------------------------------------------------

     CUMULATIVE VOLUMES      L**3       RATES FOR THIS TIME STEP      L**3/T
     ------------------                 ------------------------

           IN:                                      IN:
           ---                                      ---
             STORAGE =        8895.6816               STORAGE =           0.0000
       CONSTANT HEAD =       13918.2910         CONSTANT HEAD =       3.2299E-03
            RECHARGE =         549.3197              RECHARGE =       9.7813E-05

            TOTAL IN =       23363.2930              TOTAL IN =       3.3277E-03

          OUT:                                     OUT:
          ----                                     ----
             STORAGE =        4667.5923               STORAGE =       3.3204E-03
       CONSTANT HEAD =       18696.2598         CONSTANT HEAD =       7.3505E-06
            RECHARGE =           0.0000              RECHARGE =           0.0000

           TOTAL OUT =       23363.8516             TOTAL OUT =       3.3278E-03

            IN - OUT =          -0.5586              IN - OUT =      -9.2667E-08

 PERCENT DISCREPANCY =          -0.00     PERCENT DISCREPANCY =          -0.00






         TIME SUMMARY AT END OF TIME STEP    1 IN STRESS PERIOD   47
                    SECONDS     MINUTES      HOURS       DAYS        YEARS
                    -----------------------------------------------------------
   TIME STEP LENGTH  86400.      1440.0      24.000      1.0000     2.73785E-03
 STRESS PERIOD TIME  86400.      1440.0      24.000      1.0000     2.73785E-03
         TOTAL TIME 5.61600E+06  93600.      1560.0      65.000     0.17796    
1
1
                            STRESS PERIOD NO.   48, LENGTH =   86400.00    
                            -----------------------------------------------

                              NUMBER OF TIME STEPS =     1

                               MULTIPLIER FOR DELT =     1.000

                            INITIAL TIME STEP SIZE =   86400.00    

 REUSING RECH FROM LAST STRESS PERIOD

 CHD NO.   LAYER   ROW   COL    START HEAD        END HEAD         IFACE           
 ----------------------------------------------------------------------------------
      1      4      1      1       109.6           109.7           0.000    
      2      5      1      1       109.6           109.7           0.000    
      3      4      1      2       109.6           109.7           0.000    
      4      5      1      2       109.6           109.7           0.000    
      5      4      1      3       109.6           109.7           0.000    
      6      5      1      3       109.6           109.7           0.000    
      7      4      1      4       109.6           109.7           0.000    
      8      5      1      4       109.6           109.7           0.000    
      9      4      1      5       109.6           109.7           0.000    
     10      5      1      5       109.6           109.7           0.000    
     11      4      1      6       109.6           109.7           0.000    
     12      5      1      6       109.6           109.7           0.000    
     13      4      1      7       109.6           109.7           0.000    
     14      5      1      7       109.6           109.7           0.000    
     15      4      1      8       109.6           109.7           0.000    
     16      5      1      8       109.6           109.7           0.000    
     17      4      1      9       109.6           109.7           0.000    
     18      5      1      9       109.6           109.7           0.000    
     19      4      1     10       109.6           109.7           0.000    
     20      5      1     10       109.6           109.7           0.000    
     21      4      1     11       109.6           109.7           0.000    
     22      5      1     11       109.6           109.7           0.000    
     23      4      1     12       109.6           109.7           0.000    
     24      5      1     12       109.6           109.7           0.000    
     25      4      1     13       109.6           109.7           0.000    
     26      5      1     13       109.6           109.7           0.000    
     27      4      1     14       109.6           109.7           0.000    
     28      5      1     14       109.6           109.7           0.000    
     29      4      1     15       109.6           109.7           0.000    
     30      5      1     15       109.6           109.7           0.000    
     31      4      1     16       109.6           109.7           0.000    
     32      5      1     16       109.6           109.7           0.000    
     33      4      1     17       109.6           109.7           0.000    
     34      5      1     17       109.6           109.7           0.000    
     35      4     17     17       109.6           109.6           0.000    
     36      5     17     17       109.6           109.6           0.000    
     37      4     18     17       109.6           109.6           0.000    
     38      5     18     17       109.6           109.6           0.000    
     39      4     18     16       109.6           109.6           0.000    
     40      5     18     16       109.6           109.6           0.000    
     41      4     19     16       109.6           109.6           0.000    
     42      5     19     16       109.6           109.6           0.000    
     43      4     19     15       109.6           109.6           0.000    
     44      5     19     15       109.6           109.6           0.000    
     45      4     20     15       109.6           109.6           0.000    
     46      5     20     15       109.6           109.6           0.000    
     47      4     20     14       109.6           109.6           0.000    
     48      5     20     14       109.6           109.6           0.000    
     49      4     20     13       109.6           109.6           0.000    
     50      5     20     13       109.6           109.6           0.000    
     51      4     20     12       109.6           109.6           0.000    
     52      5     20     12       109.6           109.6           0.000    
     53      4     20     11       109.6           109.5           0.000    
     54      5     20     11       109.6           109.5           0.000    
     55      4     21     11       109.6           109.5           0.000    
     56      5     21     11       109.6           109.5           0.000    
     57      4     21     10       109.6           109.5           0.000    
     58      5     21     10       109.6           109.5           0.000    
     59      4     21      9       109.6           109.5           0.000    
     60      5     21      9       109.6           109.5           0.000    
     61      4     21      8       109.6           109.5           0.000    
     62      5     21      8       109.6           109.5           0.000    
     63      4     21      7       109.6           109.5           0.000    
     64      5     21      7       109.6           109.5           0.000    
     65      4     21      6       109.6           109.5           0.000    
     66      5     21      6       109.6           109.5           0.000    
     67      4     21      5       109.6           109.5           0.000    
     68      5     21      5       109.6           109.5           0.000    
     69      4     22      5       109.6           109.5           0.000    
     70      5     22      5       109.6           109.5           0.000    
     71      4     22      4       109.6           109.5           0.000    
     72      5     22      4       109.6           109.5           0.000    
     73      4     22      3       109.6           109.5           0.000    
     74      5     22      3       109.6           109.5           0.000    
     75      4     22      2       109.6           109.5           0.000    
     76      5     22      2       109.6           109.5           0.000    
     77      4     22      1       109.6           109.5           0.000    
     78      5     22      1       109.6           109.5           0.000    


     78 TIME-VARIANT SPECIFIED-HEAD CELLS

 SOLVING FOR HEAD 


     3 CALLS TO PCG ROUTINE FOR TIME STEP   1 IN STRESS PERIOD   48
    49 TOTAL ITERATIONS

 MAXIMUM HEAD CHANGE FOR EACH ITERATION (1 INDICATES THE FIRST INNER ITERATION):

    HEAD CHANGE    HEAD CHANGE    HEAD CHANGE    HEAD CHANGE    HEAD CHANGE 
   LAYER,ROW,COL  LAYER,ROW,COL  LAYER,ROW,COL  LAYER,ROW,COL  LAYER,ROW,COL
 ---------------------------------------------------------------------------
  1 -0.1082      0  0.7611E-01  0 -0.6172E-01  0  0.5011E-01  0 -0.6933E-01
   (  5, 21,  2)  (  5, 18,  1)  (  5, 16,  2)  (  5, 14,  2)  (  5, 19,  1)
  0 -0.3903E-01  0  0.3548E-01  0  0.2634E-01  0 -0.2091E-01  0  0.1291E-01
   (  5, 20,  1)  (  5, 18,  1)  (  5, 19,  1)  (  5, 18,  1)  (  5, 15,  4)
  0 -0.8132E-02  0 -0.6270E-02  0  0.9182E-02  0 -0.4907E-02  0 -0.3151E-02
   (  5, 17,  3)  (  5, 17,  2)  (  5, 16,  3)  (  5, 12,  5)  (  5, 19,  3)
  0  0.3593E-02  0 -0.1889E-02  0  0.1934E-02  0  0.2013E-02  0  0.7307E-03
   (  5, 18,  2)  (  5, 18,  1)  (  5, 16,  1)  (  5, 19,  3)  (  5, 17,  2)
  0 -0.7279E-03  0  0.5716E-03  0  0.4200E-03  0 -0.2738E-03  0 -0.2329E-03
   (  5, 16,  1)  (  5, 17,  2)  (  5, 20,  1)  (  5, 19,  2)  (  5, 17,  2)
  0 -0.1905E-03  0  0.1309E-03  0  0.6999E-04  0 -0.7939E-04  0  0.4139E-04
   (  5, 20,  3)  (  5, 15,  4)  (  5, 18,  1)  (  5, 19,  2)  (  5,  6,  1)
  1  0.4167E-04  0  0.5640E-04  0  0.6137E-04  0  0.4727E-04  0 -0.3854E-04
   (  5, 16,  1)  (  5, 10,  6)  (  5,  6,  1)  (  5, 12,  1)  (  5, 14,  3)
  0 -0.3683E-04  0  0.3848E-04  0 -0.2513E-04  0  0.1817E-04  0  0.8603E-05
   (  5, 19,  1)  (  5, 18,  1)  (  5, 19,  1)  (  5, 20,  1)  (  5, 18,  4)
  0  0.7088E-05  0 -0.5499E-05  0  0.5864E-05  0 -0.3923E-05  0 -0.3244E-05
   (  5, 16,  1)  (  5, 17,  2)  (  5, 16,  3)  (  5, 16,  2)  (  5, 19,  3)
  0 -0.1782E-05  0 -0.1202E-05  0 -0.8282E-06  1  0.5937E-06
   (  5, 13,  5)  (  5, 20,  1)  (  5, 20,  3)  (  5, 18,  2)

 MAXIMUM RESIDUAL FOR EACH ITERATION (1 INDICATES THE FIRST INNER ITERATION):

    RESIDUAL       RESIDUAL       RESIDUAL       RESIDUAL       RESIDUAL    
   LAYER,ROW,COL  LAYER,ROW,COL  LAYER,ROW,COL  LAYER,ROW,COL  LAYER,ROW,COL
 ---------------------------------------------------------------------------
  1  0.3062E-02  0  0.2728E-02  0  0.2434E-02  0  0.2026E-02  0  0.1565E-02
   (  3, 17, 17)  (  3, 17, 17)  (  3, 17, 17)  (  3, 17, 17)  (  3, 17, 17)
  0  0.1130E-02  0  0.7293E-03  0  0.4458E-03  0  0.2679E-03  0  0.1693E-03
   (  3, 17, 17)  (  3, 17, 17)  (  3, 20, 11)  (  3, 20, 11)  (  3, 20, 11)
  0  0.1302E-03  0  0.1209E-03  0  0.1029E-03  0  0.8137E-04  0  0.6234E-04
   (  4, 16, 17)  (  4, 16, 17)  (  4, 16, 17)  (  4, 16, 17)  (  4, 16, 17)
  0  0.4711E-04  0  0.4132E-04  0  0.2999E-04  0  0.2105E-04  0  0.1440E-04
   (  4, 16, 17)  (  4, 16, 17)  (  4, 16, 17)  (  4, 16, 17)  (  4, 16, 17)
  0  0.1109E-04  0  0.9561E-05  0 -0.6907E-05  0 -0.5908E-05  0 -0.3715E-05
   (  4, 16, 17)  (  4, 16, 17)  (  3, 21,  6)  (  3, 21,  6)  (  3, 21,  6)
  0 -0.2231E-05  0 -0.1299E-05  0 -0.1170E-05  0 -0.7152E-06  0 -0.4693E-06
   (  3, 21,  6)  (  3, 21,  5)  (  3, 21,  5)  (  3, 21,  5)  (  3, 21,  5)
  1 -0.6094E-06  0 -0.4928E-06  0 -0.3336E-06  0 -0.2377E-06  0 -0.1931E-06
   (  3, 21,  5)  (  3, 21,  5)  (  3, 21,  5)  (  3, 21,  5)  (  3, 20, 11)
  0 -0.1486E-06  0 -0.1419E-06  0  0.1350E-06  0  0.1126E-06  0  0.7797E-07
   (  4, 18, 14)  (  4, 18, 14)  (  4, 20,  2)  (  4, 20,  2)  (  4, 20,  2)
  0  0.6569E-07  0  0.6635E-07  0  0.5408E-07  0  0.3667E-07  0  0.2826E-07
   (  4, 20,  2)  (  4, 20,  2)  (  4, 20,  2)  (  4, 20,  2)  (  4, 20,  2)
  0  0.1912E-07  0  0.8837E-08  0 -0.4462E-08  1 -0.4104E-08
   (  4, 20,  2)  (  4, 20,  2)  (  4, 19,  7)  (  4, 19,  7)



 OUTPUT CONTROL FOR STRESS PERIOD   48   TIME STEP    1
    SAVE HEAD FOR ALL LAYERS
    SAVE DRAWDOWN FOR ALL LAYERS
    SAVE BUDGET
    PRINT BUDGET
 UBDSV1 SAVING "         STORAGE" ON UNIT   9 AT TIME STEP  1, STRESS PERIOD  48
 UBDSV2 SAVING "   CONSTANT HEAD" ON UNIT   9 AT TIME STEP  1, STRESS PERIOD  48
 UBDSV1 SAVING "FLOW RIGHT FACE " ON UNIT   9 AT TIME STEP  1, STRESS PERIOD  48
 UBDSV1 SAVING "FLOW FRONT FACE " ON UNIT   9 AT TIME STEP  1, STRESS PERIOD  48
 UBDSV1 SAVING "FLOW LOWER FACE " ON UNIT   9 AT TIME STEP  1, STRESS PERIOD  48
 UBDSV3 SAVING "        RECHARGE" ON UNIT   9 AT TIME STEP  1, STRESS PERIOD  48

 HEAD WILL BE SAVED ON UNIT   37 AT END OF TIME STEP    1, STRESS PERIOD   48

 DRAWDOWN WILL BE SAVED ON UNIT   38 AT END OF TIME STEP    1, STRESS PERIOD   48
1
  VOLUMETRIC BUDGET FOR ENTIRE MODEL AT END OF TIME STEP    1, STRESS PERIOD  48
  ------------------------------------------------------------------------------

     CUMULATIVE VOLUMES      L**3       RATES FOR THIS TIME STEP      L**3/T
     ------------------                 ------------------------

           IN:                                      IN:
           ---                                      ---
             STORAGE =        8910.6680               STORAGE =       1.7345E-04
       CONSTANT HEAD =       14065.7529         CONSTANT HEAD =       1.7067E-03
            RECHARGE =         557.7708              RECHARGE =       9.7813E-05

            TOTAL IN =       23534.1934              TOTAL IN =       1.9780E-03

          OUT:                                     OUT:
          ----                                     ----
             STORAGE =        4740.4824               STORAGE =       8.4363E-04
       CONSTANT HEAD =       18794.2773         CONSTANT HEAD =       1.1345E-03
            RECHARGE =           0.0000              RECHARGE =           0.0000

           TOTAL OUT =       23534.7598             TOTAL OUT =       1.9781E-03

            IN - OUT =          -0.5664              IN - OUT =      -9.1735E-08

 PERCENT DISCREPANCY =          -0.00     PERCENT DISCREPANCY =          -0.00






         TIME SUMMARY AT END OF TIME STEP    1 IN STRESS PERIOD   48
                    SECONDS     MINUTES      HOURS       DAYS        YEARS
                    -----------------------------------------------------------
   TIME STEP LENGTH  86400.      1440.0      24.000      1.0000     2.73785E-03
 STRESS PERIOD TIME  86400.      1440.0      24.000      1.0000     2.73785E-03
         TOTAL TIME 5.70240E+06  95040.      1584.0      66.000     0.18070    
1
1
                            STRESS PERIOD NO.   49, LENGTH =   86400.00    
                            -----------------------------------------------

                              NUMBER OF TIME STEPS =     1

                               MULTIPLIER FOR DELT =     1.000

                            INITIAL TIME STEP SIZE =   86400.00    

 REUSING RECH FROM LAST STRESS PERIOD

 CHD NO.   LAYER   ROW   COL    START HEAD        END HEAD         IFACE           
 ----------------------------------------------------------------------------------
      1      4      1      1       109.7           109.6           0.000    
      2      5      1      1       109.7           109.6           0.000    
      3      4      1      2       109.7           109.6           0.000    
      4      5      1      2       109.7           109.6           0.000    
      5      4      1      3       109.7           109.6           0.000    
      6      5      1      3       109.7           109.6           0.000    
      7      4      1      4       109.7           109.6           0.000    
      8      5      1      4       109.7           109.6           0.000    
      9      4      1      5       109.7           109.6           0.000    
     10      5      1      5       109.7           109.6           0.000    
     11      4      1      6       109.7           109.6           0.000    
     12      5      1      6       109.7           109.6           0.000    
     13      4      1      7       109.7           109.6           0.000    
     14      5      1      7       109.7           109.6           0.000    
     15      4      1      8       109.7           109.6           0.000    
     16      5      1      8       109.7           109.6           0.000    
     17      4      1      9       109.7           109.6           0.000    
     18      5      1      9       109.7           109.6           0.000    
     19      4      1     10       109.7           109.6           0.000    
     20      5      1     10       109.7           109.6           0.000    
     21      4      1     11       109.7           109.6           0.000    
     22      5      1     11       109.7           109.6           0.000    
     23      4      1     12       109.7           109.6           0.000    
     24      5      1     12       109.7           109.6           0.000    
     25      4      1     13       109.7           109.6           0.000    
     26      5      1     13       109.7           109.6           0.000    
     27      4      1     14       109.7           109.6           0.000    
     28      5      1     14       109.7           109.6           0.000    
     29      4      1     15       109.7           109.6           0.000    
     30      5      1     15       109.7           109.6           0.000    
     31      4      1     16       109.7           109.6           0.000    
     32      5      1     16       109.7           109.6           0.000    
     33      4      1     17       109.7           109.6           0.000    
     34      5      1     17       109.7           109.6           0.000    
     35      4     17     17       109.6           109.3           0.000    
     36      5     17     17       109.6           109.3           0.000    
     37      4     18     17       109.6           109.3           0.000    
     38      5     18     17       109.6           109.3           0.000    
     39      4     18     16       109.6           109.3           0.000    
     40      5     18     16       109.6           109.3           0.000    
     41      4     19     16       109.6           109.3           0.000    
     42      5     19     16       109.6           109.3           0.000    
     43      4     19     15       109.6           109.3           0.000    
     44      5     19     15       109.6           109.3           0.000    
     45      4     20     15       109.6           109.3           0.000    
     46      5     20     15       109.6           109.3           0.000    
     47      4     20     14       109.6           109.3           0.000    
     48      5     20     14       109.6           109.3           0.000    
     49      4     20     13       109.6           109.3           0.000    
     50      5     20     13       109.6           109.3           0.000    
     51      4     20     12       109.6           109.3           0.000    
     52      5     20     12       109.6           109.3           0.000    
     53      4     20     11       109.5           109.3           0.000    
     54      5     20     11       109.5           109.3           0.000    
     55      4     21     11       109.5           109.3           0.000    
     56      5     21     11       109.5           109.3           0.000    
     57      4     21     10       109.5           109.3           0.000    
     58      5     21     10       109.5           109.3           0.000    
     59      4     21      9       109.5           109.3           0.000    
     60      5     21      9       109.5           109.3           0.000    
     61      4     21      8       109.5           109.3           0.000    
     62      5     21      8       109.5           109.3           0.000    
     63      4     21      7       109.5           109.3           0.000    
     64      5     21      7       109.5           109.3           0.000    
     65      4     21      6       109.5           109.3           0.000    
     66      5     21      6       109.5           109.3           0.000    
     67      4     21      5       109.5           109.3           0.000    
     68      5     21      5       109.5           109.3           0.000    
     69      4     22      5       109.5           109.3           0.000    
     70      5     22      5       109.5           109.3           0.000    
     71      4     22      4       109.5           109.3           0.000    
     72      5     22      4       109.5           109.3           0.000    
     73      4     22      3       109.5           109.3           0.000    
     74      5     22      3       109.5           109.3           0.000    
     75      4     22      2       109.5           109.3           0.000    
     76      5     22      2       109.5           109.3           0.000    
     77      4     22      1       109.5           109.3           0.000    
     78      5     22      1       109.5           109.3           0.000    


     78 TIME-VARIANT SPECIFIED-HEAD CELLS

 SOLVING FOR HEAD 


     4 CALLS TO PCG ROUTINE FOR TIME STEP   1 IN STRESS PERIOD   49
    65 TOTAL ITERATIONS

 MAXIMUM HEAD CHANGE FOR EACH ITERATION (1 INDICATES THE FIRST INNER ITERATION):

    HEAD CHANGE    HEAD CHANGE    HEAD CHANGE    HEAD CHANGE    HEAD CHANGE 
   LAYER,ROW,COL  LAYER,ROW,COL  LAYER,ROW,COL  LAYER,ROW,COL  LAYER,ROW,COL
 ---------------------------------------------------------------------------
  1 -0.4664      0  0.3086      0 -0.2683      0 -0.2094      0 -0.2899    
   (  5, 21,  2)  (  5, 17,  1)  (  5, 16,  2)  (  5, 17,  1)  (  5, 19,  1)
  0 -0.1703      0  0.1487      0  0.1109      0 -0.9829E-01  0  0.5768E-01
   (  5, 20,  1)  (  5, 18,  1)  (  5, 19,  1)  (  5, 18,  1)  (  5, 18,  4)
  0 -0.4644E-01  0  0.4054E-01  0 -0.1920E-01  0 -0.2032E-01  0 -0.1339E-01
   (  5, 17,  3)  (  5, 16,  3)  (  5, 15,  1)  (  5, 12,  5)  (  5, 19,  3)
  0  0.1138E-01  0  0.7967E-02  0 -0.5218E-02  0  0.8773E-02  0  0.2997E-02
   (  5, 18,  3)  (  5, 16,  1)  (  5, 19,  1)  (  5, 19,  3)  (  5, 17,  2)
  0 -0.2382E-02  0  0.2057E-02  0 -0.1435E-02  0  0.1442E-02  0 -0.8635E-03
   (  5, 17,  5)  (  5, 15,  1)  (  5, 17,  1)  (  5, 20,  1)  (  5, 18,  5)
  0 -0.6684E-03  0 -0.3994E-03  0 -0.3057E-03  0 -0.2627E-03  0  0.2138E-03
   (  5, 20,  3)  (  5, 14,  2)  (  5,  6,  1)  (  5, 19,  1)  (  5, 18,  2)
  1 -0.1084E-02  0  0.1356E-02  0  0.1302E-02  0 -0.6493E-03  0  0.6510E-03
   (  5, 17,  2)  (  5, 15,  2)  (  5, 12,  4)  (  5, 19,  2)  (  5, 18,  1)
  0  0.3359E-03  0  0.2351E-03  0 -0.1856E-03  0  0.9924E-04  0 -0.8426E-04
   (  5, 20,  1)  (  5, 16,  2)  (  5, 17,  4)  (  5, 15,  4)  (  5, 15,  4)
  0  0.4849E-04  0 -0.4904E-04  0 -0.3714E-04  0 -0.3745E-04  0  0.3063E-04
   (  5, 18,  2)  (  5, 16,  2)  (  5, 14,  4)  (  5, 19,  2)  (  5, 19,  3)
  0 -0.1968E-04  0 -0.1303E-04  0  0.8274E-05  0  0.8585E-05  0  0.7827E-05
   (  5, 18,  3)  (  5, 19,  1)  (  5, 17,  1)  (  5, 15,  1)  (  5, 15,  1)
  0 -0.5331E-05  0  0.3502E-05  0 -0.2178E-05  0  0.1403E-05  0  0.1657E-05
   (  5, 16,  2)  (  5, 19,  1)  (  5, 20,  1)  (  5, 18,  1)  (  5, 18,  5)
  0 -0.8314E-06  1 -0.1059E-04  0 -0.5834E-05  0  0.4912E-05  0 -0.4882E-05
   (  5, 19,  5)  (  2, 19, 14)  (  5, 17,  4)  (  5, 16,  2)  (  5, 18,  1)
  0  0.1806E-05  0 -0.1296E-05  0 -0.1056E-05  0  0.6255E-06  1 -0.4466E-06
   (  5, 18,  2)  (  5, 16,  2)  (  5, 15,  4)  (  5, 20,  3)  (  5, 15,  3)

 MAXIMUM RESIDUAL FOR EACH ITERATION (1 INDICATES THE FIRST INNER ITERATION):

    RESIDUAL       RESIDUAL       RESIDUAL       RESIDUAL       RESIDUAL    
   LAYER,ROW,COL  LAYER,ROW,COL  LAYER,ROW,COL  LAYER,ROW,COL  LAYER,ROW,COL
 ---------------------------------------------------------------------------
  1  0.1382E-01  0  0.1248E-01  0  0.1126E-01  0  0.9600E-02  0  0.7682E-02
   (  3, 17, 17)  (  3, 17, 17)  (  3, 17, 17)  (  3, 17, 17)  (  3, 17, 17)
  0  0.5787E-02  0  0.3898E-02  0  0.2373E-02  0  0.1427E-02  0  0.9139E-03
   (  3, 17, 17)  (  3, 17, 17)  (  3, 17, 17)  (  3, 20, 11)  (  3, 20, 11)
  0  0.5965E-03  0  0.4828E-03  0  0.4596E-03  0  0.3709E-03  0  0.2920E-03
   (  3, 20, 11)  (  4, 16, 17)  (  4, 16, 17)  (  4, 16, 17)  (  4, 16, 17)
  0  0.2136E-03  0  0.1676E-03  0  0.1473E-03  0  0.1068E-03  0  0.7389E-04
   (  4, 16, 17)  (  4, 16, 17)  (  4, 16, 17)  (  4, 16, 17)  (  4, 16, 17)
  0  0.5771E-04  0  0.4785E-04  0  0.4374E-04  0  0.3028E-04  0  0.1873E-04
   (  4, 16, 17)  (  4, 16, 17)  (  4, 16, 17)  (  4, 16, 17)  (  4, 16, 17)
  0  0.1126E-04  0 -0.6063E-05  0 -0.3198E-05  0  0.2413E-05  0  0.2161E-05
   (  4, 16, 17)  (  3, 21,  6)  (  3, 21,  6)  (  4, 16, 17)  (  3, 17, 17)
  1  0.9935E-05  0 -0.7010E-05  0  0.2681E-05  0  0.2479E-05  0  0.1855E-05
   (  2, 21,  4)  (  3, 21,  4)  (  5, 16, 17)  (  5, 16, 17)  (  5, 16, 17)
  0 -0.1527E-05  0 -0.1125E-05  0  0.8609E-06  0 -0.6168E-06  0 -0.4899E-06
   (  3, 17, 17)  (  3, 17, 17)  (  4, 20,  2)  (  3, 20,  4)  (  3, 21,  4)
  0 -0.4359E-06  0 -0.3872E-06  0 -0.2825E-06  0 -0.1787E-06  0  0.1164E-06
   (  3, 21,  4)  (  3, 21,  4)  (  3, 21,  4)  (  3, 21,  4)  (  2, 21,  4)
  0  0.8119E-07  0  0.7889E-07  0 -0.7101E-07  0 -0.5999E-07  0 -0.5811E-07
   (  2, 21,  4)  (  4, 21,  1)  (  4, 20,  2)  (  4, 20,  2)  (  4, 20,  2)
  0 -0.5035E-07  0 -0.3009E-07  0 -0.1424E-07  0 -0.1238E-07  0 -0.1054E-07
   (  4, 20,  2)  (  4, 20,  2)  (  4, 20,  2)  (  4, 17, 15)  (  4, 16, 16)
  0 -0.7627E-08  1 -0.3242E-07  0 -0.2218E-07  0 -0.1606E-07  0 -0.1214E-07
   (  4, 16, 16)  (  3, 21,  4)  (  3, 21,  4)  (  3, 21,  4)  (  3, 18, 15)
  0 -0.1016E-07  0 -0.7610E-08  0 -0.6097E-08  0 -0.5264E-08  1 -0.5686E-08
   (  3, 18, 15)  (  3, 18, 15)  (  3, 21,  4)  (  3, 21,  4)  (  3, 21,  4)



 OUTPUT CONTROL FOR STRESS PERIOD   49   TIME STEP    1
    SAVE HEAD FOR ALL LAYERS
    SAVE DRAWDOWN FOR ALL LAYERS
    SAVE BUDGET
    PRINT BUDGET
 UBDSV1 SAVING "         STORAGE" ON UNIT   9 AT TIME STEP  1, STRESS PERIOD  49
 UBDSV2 SAVING "   CONSTANT HEAD" ON UNIT   9 AT TIME STEP  1, STRESS PERIOD  49
 UBDSV1 SAVING "FLOW RIGHT FACE " ON UNIT   9 AT TIME STEP  1, STRESS PERIOD  49
 UBDSV1 SAVING "FLOW FRONT FACE " ON UNIT   9 AT TIME STEP  1, STRESS PERIOD  49
 UBDSV1 SAVING "FLOW LOWER FACE " ON UNIT   9 AT TIME STEP  1, STRESS PERIOD  49
 UBDSV3 SAVING "        RECHARGE" ON UNIT   9 AT TIME STEP  1, STRESS PERIOD  49

 HEAD WILL BE SAVED ON UNIT   37 AT END OF TIME STEP    1, STRESS PERIOD   49

 DRAWDOWN WILL BE SAVED ON UNIT   38 AT END OF TIME STEP    1, STRESS PERIOD   49
1
  VOLUMETRIC BUDGET FOR ENTIRE MODEL AT END OF TIME STEP    1, STRESS PERIOD  49
  ------------------------------------------------------------------------------

     CUMULATIVE VOLUMES      L**3       RATES FOR THIS TIME STEP      L**3/T
     ------------------                 ------------------------

           IN:                                      IN:
           ---                                      ---
             STORAGE =        9271.8994               STORAGE =       4.1809E-03
       CONSTANT HEAD =       14204.9033         CONSTANT HEAD =       1.6105E-03
            RECHARGE =         566.2218              RECHARGE =       9.7813E-05

            TOTAL IN =       24043.0254              TOTAL IN =       5.8893E-03

          OUT:                                     OUT:
          ----                                     ----
             STORAGE =        4740.4824               STORAGE =           0.0000
       CONSTANT HEAD =       19303.1191         CONSTANT HEAD =       5.8894E-03
            RECHARGE =           0.0000              RECHARGE =           0.0000

           TOTAL OUT =       24043.6016             TOTAL OUT =       5.8894E-03

            IN - OUT =          -0.5762              IN - OUT =      -1.1455E-07

 PERCENT DISCREPANCY =          -0.00     PERCENT DISCREPANCY =          -0.00






         TIME SUMMARY AT END OF TIME STEP    1 IN STRESS PERIOD   49
                    SECONDS     MINUTES      HOURS       DAYS        YEARS
                    -----------------------------------------------------------
   TIME STEP LENGTH  86400.      1440.0      24.000      1.0000     2.73785E-03
 STRESS PERIOD TIME  86400.      1440.0      24.000      1.0000     2.73785E-03
         TOTAL TIME 5.78880E+06  96480.      1608.0      67.000     0.18344    
1
1
                            STRESS PERIOD NO.   50, LENGTH =   86400.00    
                            -----------------------------------------------

                              NUMBER OF TIME STEPS =     1

                               MULTIPLIER FOR DELT =     1.000

                            INITIAL TIME STEP SIZE =   86400.00    

 REUSING RECH FROM LAST STRESS PERIOD

 CHD NO.   LAYER   ROW   COL    START HEAD        END HEAD         IFACE           
 ----------------------------------------------------------------------------------
      1      4      1      1       109.6           109.5           0.000    
      2      5      1      1       109.6           109.5           0.000    
      3      4      1      2       109.6           109.5           0.000    
      4      5      1      2       109.6           109.5           0.000    
      5      4      1      3       109.6           109.5           0.000    
      6      5      1      3       109.6           109.5           0.000    
      7      4      1      4       109.6           109.5           0.000    
      8      5      1      4       109.6           109.5           0.000    
      9      4      1      5       109.6           109.5           0.000    
     10      5      1      5       109.6           109.5           0.000    
     11      4      1      6       109.6           109.5           0.000    
     12      5      1      6       109.6           109.5           0.000    
     13      4      1      7       109.6           109.5           0.000    
     14      5      1      7       109.6           109.5           0.000    
     15      4      1      8       109.6           109.5           0.000    
     16      5      1      8       109.6           109.5           0.000    
     17      4      1      9       109.6           109.5           0.000    
     18      5      1      9       109.6           109.5           0.000    
     19      4      1     10       109.6           109.5           0.000    
     20      5      1     10       109.6           109.5           0.000    
     21      4      1     11       109.6           109.5           0.000    
     22      5      1     11       109.6           109.5           0.000    
     23      4      1     12       109.6           109.5           0.000    
     24      5      1     12       109.6           109.5           0.000    
     25      4      1     13       109.6           109.5           0.000    
     26      5      1     13       109.6           109.5           0.000    
     27      4      1     14       109.6           109.5           0.000    
     28      5      1     14       109.6           109.5           0.000    
     29      4      1     15       109.6           109.5           0.000    
     30      5      1     15       109.6           109.5           0.000    
     31      4      1     16       109.6           109.5           0.000    
     32      5      1     16       109.6           109.5           0.000    
     33      4      1     17       109.6           109.5           0.000    
     34      5      1     17       109.6           109.5           0.000    
     35      4     17     17       109.3           109.3           0.000    
     36      5     17     17       109.3           109.3           0.000    
     37      4     18     17       109.3           109.3           0.000    
     38      5     18     17       109.3           109.3           0.000    
     39      4     18     16       109.3           109.2           0.000    
     40      5     18     16       109.3           109.2           0.000    
     41      4     19     16       109.3           109.2           0.000    
     42      5     19     16       109.3           109.2           0.000    
     43      4     19     15       109.3           109.2           0.000    
     44      5     19     15       109.3           109.2           0.000    
     45      4     20     15       109.3           109.2           0.000    
     46      5     20     15       109.3           109.2           0.000    
     47      4     20     14       109.3           109.2           0.000    
     48      5     20     14       109.3           109.2           0.000    
     49      4     20     13       109.3           109.2           0.000    
     50      5     20     13       109.3           109.2           0.000    
     51      4     20     12       109.3           109.2           0.000    
     52      5     20     12       109.3           109.2           0.000    
     53      4     20     11       109.3           109.2           0.000    
     54      5     20     11       109.3           109.2           0.000    
     55      4     21     11       109.3           109.2           0.000    
     56      5     21     11       109.3           109.2           0.000    
     57      4     21     10       109.3           109.2           0.000    
     58      5     21     10       109.3           109.2           0.000    
     59      4     21      9       109.3           109.2           0.000    
     60      5     21      9       109.3           109.2           0.000    
     61      4     21      8       109.3           109.2           0.000    
     62      5     21      8       109.3           109.2           0.000    
     63      4     21      7       109.3           109.2           0.000    
     64      5     21      7       109.3           109.2           0.000    
     65      4     21      6       109.3           109.2           0.000    
     66      5     21      6       109.3           109.2           0.000    
     67      4     21      5       109.3           109.2           0.000    
     68      5     21      5       109.3           109.2           0.000    
     69      4     22      5       109.3           109.2           0.000    
     70      5     22      5       109.3           109.2           0.000    
     71      4     22      4       109.3           109.2           0.000    
     72      5     22      4       109.3           109.2           0.000    
     73      4     22      3       109.3           109.2           0.000    
     74      5     22      3       109.3           109.2           0.000    
     75      4     22      2       109.3           109.2           0.000    
     76      5     22      2       109.3           109.2           0.000    
     77      4     22      1       109.3           109.2           0.000    
     78      5     22      1       109.3           109.2           0.000    


     78 TIME-VARIANT SPECIFIED-HEAD CELLS

 SOLVING FOR HEAD 


     4 CALLS TO PCG ROUTINE FOR TIME STEP   1 IN STRESS PERIOD   50
    64 TOTAL ITERATIONS

 MAXIMUM HEAD CHANGE FOR EACH ITERATION (1 INDICATES THE FIRST INNER ITERATION):

    HEAD CHANGE    HEAD CHANGE    HEAD CHANGE    HEAD CHANGE    HEAD CHANGE 
   LAYER,ROW,COL  LAYER,ROW,COL  LAYER,ROW,COL  LAYER,ROW,COL  LAYER,ROW,COL
 ---------------------------------------------------------------------------
  1 -0.2161      0  0.1294      0 -0.1089      0 -0.8816E-01  0 -0.1231    
   (  5, 21,  2)  (  5, 17,  1)  (  5, 15,  1)  (  5, 17,  1)  (  5, 19,  1)
  0 -0.6689E-01  0  0.5723E-01  0 -0.4757E-01  0 -0.3606E-01  0 -0.2606E-01
   (  5, 17,  4)  (  5, 18,  1)  (  5, 17,  1)  (  5, 18,  1)  (  5, 19,  1)
  0 -0.1902E-01  0  0.1660E-01  0 -0.9299E-02  0 -0.7724E-02  0  0.4912E-02
   (  5, 17,  3)  (  5, 16,  3)  (  5, 15,  1)  (  5, 12,  5)  (  5, 15,  5)
  0  0.3707E-02  0  0.2563E-02  0 -0.2501E-02  0  0.3033E-02  0 -0.1267E-02
   (  5, 18,  3)  (  5, 17,  1)  (  5, 17,  2)  (  5, 19,  3)  (  5, 18,  3)
  0 -0.1197E-02  0  0.7915E-03  0 -0.6408E-03  0 -0.6430E-03  0 -0.4096E-03
   (  5, 17,  1)  (  5, 15,  1)  (  5, 16,  2)  (  5, 19,  2)  (  5, 18,  5)
  0 -0.2471E-03  0 -0.1488E-03  0  0.1395E-03  0 -0.8082E-04  0  0.7570E-04
   (  5, 20,  3)  (  5, 14,  2)  (  5, 18,  1)  (  5, 17,  1)  (  5, 17,  2)
  1  0.1401E-02  0  0.8111E-03  0  0.1776E-02  0  0.9733E-03  0  0.7542E-03
   (  5, 19,  2)  (  5, 20,  4)  (  5, 14,  1)  (  5, 17,  1)  (  5, 13,  3)
  0  0.4226E-03  0  0.3068E-03  0 -0.3189E-03  0  0.1756E-03  0  0.1243E-03
   (  5, 17,  4)  (  5, 12,  5)  (  5, 17,  3)  (  5, 16,  3)  (  5, 13,  5)
  0  0.8564E-04  0  0.5637E-04  0 -0.4448E-04  0 -0.3189E-04  0 -0.2052E-04
   (  5, 21,  4)  (  5, 16,  5)  (  5, 15,  4)  (  5, 19,  1)  (  5, 16,  1)
  0 -0.1873E-04  0  0.1331E-04  0 -0.8828E-05  0  0.8555E-05  0 -0.4658E-05
   (  5, 20,  1)  (  5, 13,  2)  (  5, 12,  1)  (  5, 16,  1)  (  5, 15,  1)
  0  0.4880E-05  0  0.3241E-05  0 -0.1262E-05  0  0.1269E-05  0 -0.9903E-06
   (  5, 20,  1)  (  5, 19,  3)  (  5, 18,  3)  (  5, 20,  3)  (  5, 18,  1)
  1 -0.2833E-05  0  0.3335E-05  0 -0.3423E-05  0 -0.2174E-05  0  0.2538E-05
   (  5, 14,  2)  (  5, 21,  2)  (  5, 12,  2)  (  5, 15,  1)  (  5, 19,  1)
  0 -0.1967E-05  0  0.1184E-05  0 -0.9155E-06  1  0.5660E-06
   (  5, 17,  1)  (  5, 17,  2)  (  5, 19,  1)  (  5, 19,  1)

 MAXIMUM RESIDUAL FOR EACH ITERATION (1 INDICATES THE FIRST INNER ITERATION):

    RESIDUAL       RESIDUAL       RESIDUAL       RESIDUAL       RESIDUAL    
   LAYER,ROW,COL  LAYER,ROW,COL  LAYER,ROW,COL  LAYER,ROW,COL  LAYER,ROW,COL
 ---------------------------------------------------------------------------
  1  0.4821E-02  0  0.4358E-02  0  0.3905E-02  0  0.3298E-02  0  0.2581E-02
   (  3, 17, 17)  (  3, 17, 17)  (  3, 17, 17)  (  3, 17, 17)  (  3, 17, 17)
  0  0.1916E-02  0  0.1253E-02  0  0.7255E-03  0  0.4105E-03  0  0.2414E-03
   (  3, 17, 17)  (  3, 17, 17)  (  3, 17, 17)  (  3, 20, 11)  (  3, 20, 11)
  0 -0.2027E-03  0  0.1682E-03  0  0.1563E-03  0  0.1270E-03  0  0.9765E-04
   (  4, 21,  2)  (  4, 16, 17)  (  4, 16, 17)  (  4, 16, 17)  (  4, 16, 17)
  0  0.7015E-04  0  0.6293E-04  0  0.4669E-04  0  0.3339E-04  0 -0.2261E-04
   (  4, 16, 17)  (  4, 16, 17)  (  4, 16, 17)  (  4, 16, 17)  (  3, 21,  6)
  0 -0.1807E-04  0 -0.1640E-04  0 -0.1362E-04  0 -0.1079E-04  0 -0.6997E-05
   (  3, 21,  6)  (  3, 21,  6)  (  3, 21,  6)  (  3, 21,  6)  (  3, 21,  6)
  0 -0.4208E-05  0 -0.2217E-05  0 -0.1045E-05  0 -0.9090E-06  0  0.6816E-06
   (  3, 21,  6)  (  3, 21,  6)  (  3, 21,  5)  (  3, 21,  5)  (  5, 15, 17)
  1 -0.1119E-04  0 -0.9509E-05  0  0.6837E-05  0  0.6699E-05  0  0.5473E-05
   (  3, 19,  1)  (  3, 19,  1)  (  4, 19,  2)  (  4, 19,  2)  (  4, 19,  2)
  0 -0.4384E-05  0  0.3813E-05  0  0.2997E-05  0  0.1907E-05  0  0.1443E-05
   (  4, 21,  1)  (  4, 19,  2)  (  4, 19,  2)  (  4, 20,  2)  (  4, 21,  2)
  0  0.1240E-05  0  0.9338E-06  0  0.6470E-06  0  0.3705E-06  0  0.2044E-06
   (  4, 21,  2)  (  4, 21,  2)  (  4, 21,  2)  (  4, 21,  2)  (  4, 20,  1)
  0 -0.1657E-06  0 -0.1319E-06  0 -0.1168E-06  0 -0.7488E-07  0 -0.5693E-07
   (  4, 20,  2)  (  4, 20,  2)  (  4, 20,  2)  (  4, 20,  2)  (  4, 20,  2)
  0  0.4216E-07  0  0.2926E-07  0 -0.1944E-07  0 -0.1291E-07  0 -0.8810E-08
   (  4, 20,  3)  (  4, 20,  3)  (  4, 21,  2)  (  4, 21,  2)  (  4, 21,  2)
  1 -0.7262E-07  0 -0.5954E-07  0 -0.3386E-07  0  0.3066E-07  0  0.2899E-07
   (  3, 21,  2)  (  3, 21,  2)  (  3, 21,  2)  (  4, 21,  2)  (  4, 21,  2)
  0  0.2393E-07  0  0.1693E-07  0  0.1155E-07  1  0.1116E-07
   (  4, 21,  2)  (  4, 21,  2)  (  4, 21,  2)  (  4, 21,  2)



 OUTPUT CONTROL FOR STRESS PERIOD   50   TIME STEP    1
    SAVE HEAD FOR ALL LAYERS
    SAVE DRAWDOWN FOR ALL LAYERS
    SAVE BUDGET
    PRINT BUDGET
 UBDSV1 SAVING "         STORAGE" ON UNIT   9 AT TIME STEP  1, STRESS PERIOD  50
 UBDSV2 SAVING "   CONSTANT HEAD" ON UNIT   9 AT TIME STEP  1, STRESS PERIOD  50
 UBDSV1 SAVING "FLOW RIGHT FACE " ON UNIT   9 AT TIME STEP  1, STRESS PERIOD  50
 UBDSV1 SAVING "FLOW FRONT FACE " ON UNIT   9 AT TIME STEP  1, STRESS PERIOD  50
 UBDSV1 SAVING "FLOW LOWER FACE " ON UNIT   9 AT TIME STEP  1, STRESS PERIOD  50
 UBDSV3 SAVING "        RECHARGE" ON UNIT   9 AT TIME STEP  1, STRESS PERIOD  50

 HEAD WILL BE SAVED ON UNIT   37 AT END OF TIME STEP    1, STRESS PERIOD   50

 DRAWDOWN WILL BE SAVED ON UNIT   38 AT END OF TIME STEP    1, STRESS PERIOD   50
1
  VOLUMETRIC BUDGET FOR ENTIRE MODEL AT END OF TIME STEP    1, STRESS PERIOD  50
  ------------------------------------------------------------------------------

     CUMULATIVE VOLUMES      L**3       RATES FOR THIS TIME STEP      L**3/T
     ------------------                 ------------------------

           IN:                                      IN:
           ---                                      ---
             STORAGE =        9580.4648               STORAGE =       3.5714E-03
       CONSTANT HEAD =       14335.4062         CONSTANT HEAD =       1.5104E-03
            RECHARGE =         574.6729              RECHARGE =       9.7813E-05

            TOTAL IN =       24490.5430              TOTAL IN =       5.1796E-03

          OUT:                                     OUT:
          ----                                     ----
             STORAGE =        4740.4824               STORAGE =           0.0000
       CONSTANT HEAD =       19750.6465         CONSTANT HEAD =       5.1797E-03
            RECHARGE =           0.0000              RECHARGE =           0.0000

           TOTAL OUT =       24491.1289             TOTAL OUT =       5.1797E-03

            IN - OUT =          -0.5859              IN - OUT =      -1.0245E-07

 PERCENT DISCREPANCY =          -0.00     PERCENT DISCREPANCY =          -0.00






         TIME SUMMARY AT END OF TIME STEP    1 IN STRESS PERIOD   50
                    SECONDS     MINUTES      HOURS       DAYS        YEARS
                    -----------------------------------------------------------
   TIME STEP LENGTH  86400.      1440.0      24.000      1.0000     2.73785E-03
 STRESS PERIOD TIME  86400.      1440.0      24.000      1.0000     2.73785E-03
         TOTAL TIME 5.87520E+06  97920.      1632.0      68.000     0.18617    
1
1
                            STRESS PERIOD NO.   51, LENGTH =   86400.00    
                            -----------------------------------------------

                              NUMBER OF TIME STEPS =     1

                               MULTIPLIER FOR DELT =     1.000

                            INITIAL TIME STEP SIZE =   86400.00    

 REUSING RECH FROM LAST STRESS PERIOD

 CHD NO.   LAYER   ROW   COL    START HEAD        END HEAD         IFACE           
 ----------------------------------------------------------------------------------
      1      4      1      1       109.5           109.5           0.000    
      2      5      1      1       109.5           109.5           0.000    
      3      4      1      2       109.5           109.5           0.000    
      4      5      1      2       109.5           109.5           0.000    
      5      4      1      3       109.5           109.5           0.000    
      6      5      1      3       109.5           109.5           0.000    
      7      4      1      4       109.5           109.5           0.000    
      8      5      1      4       109.5           109.5           0.000    
      9      4      1      5       109.5           109.5           0.000    
     10      5      1      5       109.5           109.5           0.000    
     11      4      1      6       109.5           109.5           0.000    
     12      5      1      6       109.5           109.5           0.000    
     13      4      1      7       109.5           109.5           0.000    
     14      5      1      7       109.5           109.5           0.000    
     15      4      1      8       109.5           109.5           0.000    
     16      5      1      8       109.5           109.5           0.000    
     17      4      1      9       109.5           109.5           0.000    
     18      5      1      9       109.5           109.5           0.000    
     19      4      1     10       109.5           109.5           0.000    
     20      5      1     10       109.5           109.5           0.000    
     21      4      1     11       109.5           109.5           0.000    
     22      5      1     11       109.5           109.5           0.000    
     23      4      1     12       109.5           109.5           0.000    
     24      5      1     12       109.5           109.5           0.000    
     25      4      1     13       109.5           109.5           0.000    
     26      5      1     13       109.5           109.5           0.000    
     27      4      1     14       109.5           109.5           0.000    
     28      5      1     14       109.5           109.5           0.000    
     29      4      1     15       109.5           109.5           0.000    
     30      5      1     15       109.5           109.5           0.000    
     31      4      1     16       109.5           109.5           0.000    
     32      5      1     16       109.5           109.5           0.000    
     33      4      1     17       109.5           109.5           0.000    
     34      5      1     17       109.5           109.5           0.000    
     35      4     17     17       109.3           109.2           0.000    
     36      5     17     17       109.3           109.2           0.000    
     37      4     18     17       109.3           109.2           0.000    
     38      5     18     17       109.3           109.2           0.000    
     39      4     18     16       109.2           109.2           0.000    
     40      5     18     16       109.2           109.2           0.000    
     41      4     19     16       109.2           109.2           0.000    
     42      5     19     16       109.2           109.2           0.000    
     43      4     19     15       109.2           109.2           0.000    
     44      5     19     15       109.2           109.2           0.000    
     45      4     20     15       109.2           109.2           0.000    
     46      5     20     15       109.2           109.2           0.000    
     47      4     20     14       109.2           109.2           0.000    
     48      5     20     14       109.2           109.2           0.000    
     49      4     20     13       109.2           109.2           0.000    
     50      5     20     13       109.2           109.2           0.000    
     51      4     20     12       109.2           109.2           0.000    
     52      5     20     12       109.2           109.2           0.000    
     53      4     20     11       109.2           109.2           0.000    
     54      5     20     11       109.2           109.2           0.000    
     55      4     21     11       109.2           109.2           0.000    
     56      5     21     11       109.2           109.2           0.000    
     57      4     21     10       109.2           109.2           0.000    
     58      5     21     10       109.2           109.2           0.000    
     59      4     21      9       109.2           109.2           0.000    
     60      5     21      9       109.2           109.2           0.000    
     61      4     21      8       109.2           109.2           0.000    
     62      5     21      8       109.2           109.2           0.000    
     63      4     21      7       109.2           109.2           0.000    
     64      5     21      7       109.2           109.2           0.000    
     65      4     21      6       109.2           109.2           0.000    
     66      5     21      6       109.2           109.2           0.000    
     67      4     21      5       109.2           109.2           0.000    
     68      5     21      5       109.2           109.2           0.000    
     69      4     22      5       109.2           109.2           0.000    
     70      5     22      5       109.2           109.2           0.000    
     71      4     22      4       109.2           109.2           0.000    
     72      5     22      4       109.2           109.2           0.000    
     73      4     22      3       109.2           109.2           0.000    
     74      5     22      3       109.2           109.2           0.000    
     75      4     22      2       109.2           109.2           0.000    
     76      5     22      2       109.2           109.2           0.000    
     77      4     22      1       109.2           109.2           0.000    
     78      5     22      1       109.2           109.2           0.000    


     78 TIME-VARIANT SPECIFIED-HEAD CELLS

 SOLVING FOR HEAD 


     4 CALLS TO PCG ROUTINE FOR TIME STEP   1 IN STRESS PERIOD   51
    54 TOTAL ITERATIONS

 MAXIMUM HEAD CHANGE FOR EACH ITERATION (1 INDICATES THE FIRST INNER ITERATION):

    HEAD CHANGE    HEAD CHANGE    HEAD CHANGE    HEAD CHANGE    HEAD CHANGE 
   LAYER,ROW,COL  LAYER,ROW,COL  LAYER,ROW,COL  LAYER,ROW,COL  LAYER,ROW,COL
 ---------------------------------------------------------------------------
  1 -0.1003      0  0.6149E-01  0  0.3569E-01  0 -0.5767E-01  0  0.3518E-01
   (  5, 21,  2)  (  5, 20,  1)  (  5, 21,  2)  (  5, 19,  1)  (  5, 17,  1)
  0  0.1963E-01  0 -0.2187E-01  0  0.1231E-01  0 -0.9854E-02  0 -0.4408E-02
   (  5, 19,  1)  (  5, 17,  1)  (  5, 15,  1)  (  5, 19,  1)  (  5, 17,  3)
  0  0.4051E-02  0 -0.2654E-02  0  0.1578E-02  0 -0.9930E-03  0  0.7133E-03
   (  5, 16,  3)  (  5, 15,  3)  (  5, 16,  5)  (  5, 14,  4)  (  5, 13,  4)
  0 -0.4020E-03  0 -0.4489E-03  0  0.3797E-03  0 -0.2081E-03  0 -0.1449E-03
   (  5, 15,  5)  (  5, 13,  2)  (  5, 14,  4)  (  5, 14,  5)  (  5, 19,  3)
  0 -0.1366E-03  0 -0.6571E-04  0 -0.7147E-04  0 -0.3598E-04  0 -0.2576E-04
   (  5,  6,  1)  (  5, 13,  5)  (  5, 15,  1)  (  5,  7,  1)  (  5, 16,  1)
  0  0.2032E-04  0 -0.1917E-04  0  0.1240E-04  0 -0.8066E-05  0  0.5432E-05
   (  5, 18,  1)  (  5, 17,  1)  (  5,  8,  1)  (  5, 13,  2)  (  5, 17,  4)
  1  0.6331E-03  0  0.4411E-03  0  0.6625E-03  0 -0.3620E-03  0  0.3324E-03
   (  5, 13,  2)  (  3, 13,  3)  (  5, 15,  1)  (  5, 17,  1)  (  5, 18,  1)
  0  0.1663E-03  0 -0.1342E-03  0 -0.9397E-04  0  0.5805E-04  0  0.3235E-04
   (  5, 17,  5)  (  5, 16,  3)  (  5, 20,  1)  (  5, 10,  1)  (  5, 13,  1)
  0 -0.2253E-04  0  0.2021E-04  0 -0.1391E-04  0 -0.8144E-05  0  0.5376E-05
   (  5, 19,  1)  (  5, 20,  1)  (  5, 20,  1)  (  5, 11,  5)  (  5, 10,  3)
  0 -0.3581E-05  0 -0.3037E-05  0  0.1687E-05  0  0.1641E-05  0 -0.1401E-05
   (  5, 21,  1)  (  5, 19,  3)  (  5, 18,  4)  (  5, 15,  1)  (  5, 17,  1)
  0  0.7776E-06  1 -0.1067E-05  0 -0.8367E-06  1  0.9488E-06
   (  5, 18,  1)  (  5, 12,  2)  (  5, 18,  1)  (  5, 18,  1)

 MAXIMUM RESIDUAL FOR EACH ITERATION (1 INDICATES THE FIRST INNER ITERATION):

    RESIDUAL       RESIDUAL       RESIDUAL       RESIDUAL       RESIDUAL    
   LAYER,ROW,COL  LAYER,ROW,COL  LAYER,ROW,COL  LAYER,ROW,COL  LAYER,ROW,COL
 ---------------------------------------------------------------------------
  1  0.1215E-02  0  0.1011E-02  0  0.8416E-03  0  0.5917E-03  0  0.3711E-03
   (  3, 17, 17)  (  3, 17, 17)  (  3, 17, 17)  (  3, 17, 17)  (  3, 17, 17)
  0  0.2106E-03  0  0.1205E-03  0 -0.7830E-04  0 -0.6583E-04  0 -0.5511E-04
   (  3, 17, 17)  (  3, 17, 17)  (  5, 16, 17)  (  4, 21,  2)  (  4, 21,  2)
  0 -0.3984E-04  0 -0.2758E-04  0 -0.1884E-04  0  0.1236E-04  0 -0.9715E-05
   (  4, 21,  2)  (  4, 21,  2)  (  4, 21,  2)  (  4, 16, 17)  (  3, 21,  6)
  0 -0.7995E-05  0 -0.6942E-05  0 -0.5354E-05  0 -0.3796E-05  0 -0.2490E-05
   (  3, 21,  6)  (  3, 21,  6)  (  3, 21,  6)  (  3, 21,  6)  (  3, 21,  6)
  0 -0.1560E-05  0 -0.1064E-05  0 -0.6991E-06  0 -0.3584E-06  0  0.2434E-06
   (  3, 21,  6)  (  3, 21,  6)  (  3, 21,  6)  (  3, 21,  5)  (  5, 15, 17)
  0  0.1792E-06  0  0.1368E-06  0  0.9130E-07  0  0.8147E-07  0  0.5443E-07
   (  5, 15, 17)  (  5, 15, 17)  (  5, 16, 17)  (  5, 16, 17)  (  5, 16, 17)
  1 -0.4518E-05  0 -0.3706E-05  0 -0.2520E-05  0 -0.1689E-05  0  0.1545E-05
   (  3, 13,  1)  (  3, 13,  1)  (  3, 13,  1)  (  3, 13,  1)  (  4, 13,  3)
  0  0.1128E-05  0 -0.9163E-06  0 -0.5922E-06  0 -0.4681E-06  0  0.3690E-06
   (  4, 13,  3)  (  4, 21,  1)  (  4, 21,  1)  (  4, 21,  1)  (  4, 21,  2)
  0  0.3116E-06  0  0.2061E-06  0  0.1387E-06  0  0.8860E-07  0 -0.5212E-07
   (  4, 21,  2)  (  4, 21,  2)  (  4, 21,  2)  (  4, 21,  2)  (  4, 12,  2)
  0 -0.4040E-07  0 -0.3021E-07  0 -0.1809E-07  0 -0.1380E-07  0 -0.1121E-07
   (  4, 20,  2)  (  4, 20,  2)  (  4, 20,  2)  (  4, 21,  2)  (  4, 21,  2)
  0  0.8138E-08  1 -0.8977E-08  0 -0.6280E-08  1 -0.5848E-08
   (  4, 20,  3)  (  3, 21,  2)  (  3, 21,  2)  (  3, 21,  2)



 OUTPUT CONTROL FOR STRESS PERIOD   51   TIME STEP    1
    SAVE HEAD FOR ALL LAYERS
    SAVE DRAWDOWN FOR ALL LAYERS
    SAVE BUDGET
    PRINT BUDGET
 UBDSV1 SAVING "         STORAGE" ON UNIT   9 AT TIME STEP  1, STRESS PERIOD  51
 UBDSV2 SAVING "   CONSTANT HEAD" ON UNIT   9 AT TIME STEP  1, STRESS PERIOD  51
 UBDSV1 SAVING "FLOW RIGHT FACE " ON UNIT   9 AT TIME STEP  1, STRESS PERIOD  51
 UBDSV1 SAVING "FLOW FRONT FACE " ON UNIT   9 AT TIME STEP  1, STRESS PERIOD  51
 UBDSV1 SAVING "FLOW LOWER FACE " ON UNIT   9 AT TIME STEP  1, STRESS PERIOD  51
 UBDSV3 SAVING "        RECHARGE" ON UNIT   9 AT TIME STEP  1, STRESS PERIOD  51

 HEAD WILL BE SAVED ON UNIT   37 AT END OF TIME STEP    1, STRESS PERIOD   51

 DRAWDOWN WILL BE SAVED ON UNIT   38 AT END OF TIME STEP    1, STRESS PERIOD   51
1
  VOLUMETRIC BUDGET FOR ENTIRE MODEL AT END OF TIME STEP    1, STRESS PERIOD  51
  ------------------------------------------------------------------------------

     CUMULATIVE VOLUMES      L**3       RATES FOR THIS TIME STEP      L**3/T
     ------------------                 ------------------------

           IN:                                      IN:
           ---                                      ---
             STORAGE =        9755.1387               STORAGE =       2.0217E-03
       CONSTANT HEAD =       14500.3984         CONSTANT HEAD =       1.9096E-03
            RECHARGE =         583.1239              RECHARGE =       9.7813E-05

            TOTAL IN =       24838.6602              TOTAL IN =       4.0291E-03

          OUT:                                     OUT:
          ----                                     ----
             STORAGE =        4740.4824               STORAGE =           0.0000
       CONSTANT HEAD =       20098.7715         CONSTANT HEAD =       4.0292E-03
            RECHARGE =           0.0000              RECHARGE =           0.0000

           TOTAL OUT =       24839.2539             TOTAL OUT =       4.0292E-03

            IN - OUT =          -0.5938              IN - OUT =      -8.3819E-08

 PERCENT DISCREPANCY =          -0.00     PERCENT DISCREPANCY =          -0.00






         TIME SUMMARY AT END OF TIME STEP    1 IN STRESS PERIOD   51
                    SECONDS     MINUTES      HOURS       DAYS        YEARS
                    -----------------------------------------------------------
   TIME STEP LENGTH  86400.      1440.0      24.000      1.0000     2.73785E-03
 STRESS PERIOD TIME  86400.      1440.0      24.000      1.0000     2.73785E-03
         TOTAL TIME 5.96160E+06  99360.      1656.0      69.000     0.18891    
1
1
                            STRESS PERIOD NO.   52, LENGTH =   86400.00    
                            -----------------------------------------------

                              NUMBER OF TIME STEPS =     1

                               MULTIPLIER FOR DELT =     1.000

                            INITIAL TIME STEP SIZE =   86400.00    

 REUSING RECH FROM LAST STRESS PERIOD

 CHD NO.   LAYER   ROW   COL    START HEAD        END HEAD         IFACE           
 ----------------------------------------------------------------------------------
      1      4      1      1       109.5           109.4           0.000    
      2      5      1      1       109.5           109.4           0.000    
      3      4      1      2       109.5           109.4           0.000    
      4      5      1      2       109.5           109.4           0.000    
      5      4      1      3       109.5           109.4           0.000    
      6      5      1      3       109.5           109.4           0.000    
      7      4      1      4       109.5           109.4           0.000    
      8      5      1      4       109.5           109.4           0.000    
      9      4      1      5       109.5           109.4           0.000    
     10      5      1      5       109.5           109.4           0.000    
     11      4      1      6       109.5           109.4           0.000    
     12      5      1      6       109.5           109.4           0.000    
     13      4      1      7       109.5           109.4           0.000    
     14      5      1      7       109.5           109.4           0.000    
     15      4      1      8       109.5           109.4           0.000    
     16      5      1      8       109.5           109.4           0.000    
     17      4      1      9       109.5           109.4           0.000    
     18      5      1      9       109.5           109.4           0.000    
     19      4      1     10       109.5           109.4           0.000    
     20      5      1     10       109.5           109.4           0.000    
     21      4      1     11       109.5           109.4           0.000    
     22      5      1     11       109.5           109.4           0.000    
     23      4      1     12       109.5           109.4           0.000    
     24      5      1     12       109.5           109.4           0.000    
     25      4      1     13       109.5           109.4           0.000    
     26      5      1     13       109.5           109.4           0.000    
     27      4      1     14       109.5           109.4           0.000    
     28      5      1     14       109.5           109.4           0.000    
     29      4      1     15       109.5           109.4           0.000    
     30      5      1     15       109.5           109.4           0.000    
     31      4      1     16       109.5           109.4           0.000    
     32      5      1     16       109.5           109.4           0.000    
     33      4      1     17       109.5           109.4           0.000    
     34      5      1     17       109.5           109.4           0.000    
     35      4     17     17       109.2           109.2           0.000    
     36      5     17     17       109.2           109.2           0.000    
     37      4     18     17       109.2           109.2           0.000    
     38      5     18     17       109.2           109.2           0.000    
     39      4     18     16       109.2           109.2           0.000    
     40      5     18     16       109.2           109.2           0.000    
     41      4     19     16       109.2           109.2           0.000    
     42      5     19     16       109.2           109.2           0.000    
     43      4     19     15       109.2           109.1           0.000    
     44      5     19     15       109.2           109.1           0.000    
     45      4     20     15       109.2           109.1           0.000    
     46      5     20     15       109.2           109.1           0.000    
     47      4     20     14       109.2           109.1           0.000    
     48      5     20     14       109.2           109.1           0.000    
     49      4     20     13       109.2           109.1           0.000    
     50      5     20     13       109.2           109.1           0.000    
     51      4     20     12       109.2           109.1           0.000    
     52      5     20     12       109.2           109.1           0.000    
     53      4     20     11       109.2           109.1           0.000    
     54      5     20     11       109.2           109.1           0.000    
     55      4     21     11       109.2           109.1           0.000    
     56      5     21     11       109.2           109.1           0.000    
     57      4     21     10       109.2           109.1           0.000    
     58      5     21     10       109.2           109.1           0.000    
     59      4     21      9       109.2           109.1           0.000    
     60      5     21      9       109.2           109.1           0.000    
     61      4     21      8       109.2           109.1           0.000    
     62      5     21      8       109.2           109.1           0.000    
     63      4     21      7       109.2           109.1           0.000    
     64      5     21      7       109.2           109.1           0.000    
     65      4     21      6       109.2           109.1           0.000    
     66      5     21      6       109.2           109.1           0.000    
     67      4     21      5       109.2           109.1           0.000    
     68      5     21      5       109.2           109.1           0.000    
     69      4     22      5       109.2           109.1           0.000    
     70      5     22      5       109.2           109.1           0.000    
     71      4     22      4       109.2           109.1           0.000    
     72      5     22      4       109.2           109.1           0.000    
     73      4     22      3       109.2           109.1           0.000    
     74      5     22      3       109.2           109.1           0.000    
     75      4     22      2       109.2           109.1           0.000    
     76      5     22      2       109.2           109.1           0.000    
     77      4     22      1       109.2           109.1           0.000    
     78      5     22      1       109.2           109.1           0.000    


     78 TIME-VARIANT SPECIFIED-HEAD CELLS

 SOLVING FOR HEAD 


     4 CALLS TO PCG ROUTINE FOR TIME STEP   1 IN STRESS PERIOD   52
    57 TOTAL ITERATIONS

 MAXIMUM HEAD CHANGE FOR EACH ITERATION (1 INDICATES THE FIRST INNER ITERATION):

    HEAD CHANGE    HEAD CHANGE    HEAD CHANGE    HEAD CHANGE    HEAD CHANGE 
   LAYER,ROW,COL  LAYER,ROW,COL  LAYER,ROW,COL  LAYER,ROW,COL  LAYER,ROW,COL
 ---------------------------------------------------------------------------
  1 -0.2168      0  0.1663      0 -0.1288      0  0.8814E-01  0 -0.6364E-01
   (  5, 21,  2)  (  5, 20,  1)  (  5, 18,  1)  (  5, 17,  1)  (  5, 16,  1)
  0  0.3715E-01  0 -0.3838E-01  0  0.1760E-01  0 -0.1090E-01  0  0.7160E-02
   (  5, 15,  1)  (  5, 18,  1)  (  5, 17,  1)  (  5, 19,  1)  (  5, 18,  1)
  0  0.4723E-02  0 -0.3937E-02  0  0.3160E-02  0 -0.2152E-02  0  0.1252E-02
   (  5, 17,  3)  (  5, 15,  3)  (  5, 15,  3)  (  5, 14,  4)  (  5, 13,  4)
  0 -0.6859E-03  0 -0.4493E-03  0 -0.3125E-03  0 -0.2213E-03  0  0.1550E-03
   (  5, 12,  5)  (  5, 16,  3)  (  5, 14,  5)  (  5, 17,  2)  (  5, 19,  2)
  0 -0.1735E-03  0  0.6417E-04  0 -0.6517E-04  0 -0.3773E-04  0  0.2795E-04
   (  5, 15,  1)  (  5, 16,  2)  (  5,  6,  1)  (  5, 19,  2)  (  5, 19,  1)
  0 -0.1804E-04  0  0.1245E-04  0 -0.8825E-05  0  0.5360E-05  0 -0.3660E-05
   (  5,  6,  1)  (  5,  6,  1)  (  5,  6,  1)  (  5,  7,  1)  (  5,  7,  1)
  1  0.8306E-03  0  0.9033E-03  0  0.5639E-03  0  0.3933E-03  0 -0.2046E-03
   (  5, 11,  4)  (  3, 10,  3)  (  3, 10,  3)  (  5, 14,  1)  (  5, 16,  1)
  0  0.1844E-03  0 -0.1994E-03  0  0.1103E-03  0 -0.1009E-03  0 -0.5313E-04
   (  5, 19,  1)  (  5, 19,  1)  (  5, 17,  1)  (  5, 16,  1)  (  5, 20,  1)
  0 -0.2700E-04  0 -0.1754E-04  0  0.1078E-04  0  0.8822E-05  0  0.5265E-05
   (  5, 16,  3)  (  5, 15,  5)  (  5, 13,  5)  (  5, 15,  4)  (  5, 18,  3)
  0  0.5606E-05  0  0.3214E-05  0  0.2085E-05  0 -0.1189E-05  0  0.9111E-06
   (  5,  8,  1)  (  5, 17,  5)  (  5,  6,  1)  (  5,  6,  1)  (  5,  6,  1)
  1  0.1499E-05  0  0.1320E-05  0 -0.1711E-05  0  0.1503E-05  0 -0.1083E-05
   (  5, 20,  3)  (  5, 15,  1)  (  5, 14,  1)  (  5, 19,  1)  (  5, 17,  1)
  0  0.4809E-06  1  0.2100E-06
   (  5, 16,  1)  (  5, 15,  4)

 MAXIMUM RESIDUAL FOR EACH ITERATION (1 INDICATES THE FIRST INNER ITERATION):

    RESIDUAL       RESIDUAL       RESIDUAL       RESIDUAL       RESIDUAL    
   LAYER,ROW,COL  LAYER,ROW,COL  LAYER,ROW,COL  LAYER,ROW,COL  LAYER,ROW,COL
 ---------------------------------------------------------------------------
  1  0.3822E-02  0  0.3005E-02  0  0.2083E-02  0  0.1335E-02  0  0.7722E-03
   (  3, 17, 17)  (  3, 17, 17)  (  3, 17, 17)  (  3, 17, 17)  (  3, 17, 17)
  0  0.4776E-03  0  0.2832E-03  0  0.1871E-03  0  0.1526E-03  0  0.1169E-03
   (  3, 20, 11)  (  3, 20, 11)  (  4, 16, 17)  (  4, 16, 17)  (  4, 16, 17)
  0  0.8717E-04  0  0.6131E-04  0  0.4263E-04  0  0.2920E-04  0  0.1987E-04
   (  4, 16, 17)  (  4, 16, 17)  (  4, 16, 17)  (  4, 16, 17)  (  4, 16, 17)
  0 -0.1368E-04  0 -0.9890E-05  0 -0.6552E-05  0 -0.3850E-05  0 -0.2232E-05
   (  3, 21,  6)  (  3, 21,  6)  (  3, 21,  6)  (  3, 21,  6)  (  3, 21,  6)
  0 -0.1536E-05  0 -0.7756E-06  0  0.4981E-06  0  0.3757E-06  0  0.2955E-06
   (  3, 21,  6)  (  3, 21,  5)  (  5, 15, 17)  (  5, 15, 17)  (  5, 15, 17)
  0  0.2004E-06  0  0.1483E-06  0  0.1048E-06  0  0.7174E-07  0  0.5041E-07
   (  3, 17, 17)  (  3, 17, 17)  (  3, 17, 17)  (  3, 17, 17)  (  3, 17, 17)
  1 -0.6911E-05  0 -0.4226E-05  0 -0.2525E-05  0  0.1588E-05  0  0.1535E-05
   (  3, 17,  3)  (  3, 10,  4)  (  3, 10,  4)  (  4, 12,  4)  (  4, 12,  4)
  0  0.1013E-05  0  0.8870E-06  0  0.5473E-06  0  0.4894E-06  0  0.4244E-06
   (  4, 10,  4)  (  4, 18,  3)  (  4, 10,  4)  (  4, 20,  2)  (  4, 20,  2)
  0  0.2810E-06  0  0.2016E-06  0  0.1392E-06  0  0.8640E-07  0 -0.5793E-07
   (  4, 20,  2)  (  4, 21,  2)  (  4, 21,  2)  (  4, 21,  2)  (  4, 20,  3)
  0 -0.4171E-07  0 -0.3218E-07  0 -0.1974E-07  0 -0.1241E-07  0 -0.6609E-08
   (  4, 20,  2)  (  4, 20,  2)  (  4, 20,  2)  (  4, 20,  2)  (  4, 20,  2)
  1  0.1122E-07  0  0.8182E-08  0 -0.5426E-08  0 -0.4241E-08  0  0.4303E-08
   (  3, 13,  5)  (  3, 13,  5)  (  5,  8,  1)  (  4, 18,  2)  (  4, 21,  2)
  0  0.3522E-08  1  0.3206E-08
   (  4, 21,  2)  (  4, 21,  2)



 OUTPUT CONTROL FOR STRESS PERIOD   52   TIME STEP    1
    SAVE HEAD FOR ALL LAYERS
    SAVE DRAWDOWN FOR ALL LAYERS
    SAVE BUDGET
    PRINT BUDGET
 UBDSV1 SAVING "         STORAGE" ON UNIT   9 AT TIME STEP  1, STRESS PERIOD  52
 UBDSV2 SAVING "   CONSTANT HEAD" ON UNIT   9 AT TIME STEP  1, STRESS PERIOD  52
 UBDSV1 SAVING "FLOW RIGHT FACE " ON UNIT   9 AT TIME STEP  1, STRESS PERIOD  52
 UBDSV1 SAVING "FLOW FRONT FACE " ON UNIT   9 AT TIME STEP  1, STRESS PERIOD  52
 UBDSV1 SAVING "FLOW LOWER FACE " ON UNIT   9 AT TIME STEP  1, STRESS PERIOD  52
 UBDSV3 SAVING "        RECHARGE" ON UNIT   9 AT TIME STEP  1, STRESS PERIOD  52

 HEAD WILL BE SAVED ON UNIT   37 AT END OF TIME STEP    1, STRESS PERIOD   52

 DRAWDOWN WILL BE SAVED ON UNIT   38 AT END OF TIME STEP    1, STRESS PERIOD   52
1
  VOLUMETRIC BUDGET FOR ENTIRE MODEL AT END OF TIME STEP    1, STRESS PERIOD  52
  ------------------------------------------------------------------------------

     CUMULATIVE VOLUMES      L**3       RATES FOR THIS TIME STEP      L**3/T
     ------------------                 ------------------------

           IN:                                      IN:
           ---                                      ---
             STORAGE =        9984.5137               STORAGE =       2.6548E-03
       CONSTANT HEAD =       14672.7852         CONSTANT HEAD =       1.9952E-03
            RECHARGE =         591.5750              RECHARGE =       9.7813E-05

            TOTAL IN =       25248.8730              TOTAL IN =       4.7478E-03

          OUT:                                     OUT:
          ----                                     ----
             STORAGE =        4740.4824               STORAGE =           0.0000
       CONSTANT HEAD =       20508.9922         CONSTANT HEAD =       4.7479E-03
            RECHARGE =           0.0000              RECHARGE =           0.0000

           TOTAL OUT =       25249.4746             TOTAL OUT =       4.7479E-03

            IN - OUT =          -0.6016              IN - OUT =      -1.0477E-07

 PERCENT DISCREPANCY =          -0.00     PERCENT DISCREPANCY =          -0.00






         TIME SUMMARY AT END OF TIME STEP    1 IN STRESS PERIOD   52
                    SECONDS     MINUTES      HOURS       DAYS        YEARS
                    -----------------------------------------------------------
   TIME STEP LENGTH  86400.      1440.0      24.000      1.0000     2.73785E-03
 STRESS PERIOD TIME  86400.      1440.0      24.000      1.0000     2.73785E-03
         TOTAL TIME 6.04800E+06 1.00800E+05  1680.0      70.000     0.19165    
1
1
                            STRESS PERIOD NO.   53, LENGTH =   86400.00    
                            -----------------------------------------------

                              NUMBER OF TIME STEPS =     1

                               MULTIPLIER FOR DELT =     1.000

                            INITIAL TIME STEP SIZE =   86400.00    

 REUSING RECH FROM LAST STRESS PERIOD

 CHD NO.   LAYER   ROW   COL    START HEAD        END HEAD         IFACE           
 ----------------------------------------------------------------------------------
      1      4      1      1       109.4           109.4           0.000    
      2      5      1      1       109.4           109.4           0.000    
      3      4      1      2       109.4           109.4           0.000    
      4      5      1      2       109.4           109.4           0.000    
      5      4      1      3       109.4           109.4           0.000    
      6      5      1      3       109.4           109.4           0.000    
      7      4      1      4       109.4           109.4           0.000    
      8      5      1      4       109.4           109.4           0.000    
      9      4      1      5       109.4           109.4           0.000    
     10      5      1      5       109.4           109.4           0.000    
     11      4      1      6       109.4           109.4           0.000    
     12      5      1      6       109.4           109.4           0.000    
     13      4      1      7       109.4           109.4           0.000    
     14      5      1      7       109.4           109.4           0.000    
     15      4      1      8       109.4           109.4           0.000    
     16      5      1      8       109.4           109.4           0.000    
     17      4      1      9       109.4           109.4           0.000    
     18      5      1      9       109.4           109.4           0.000    
     19      4      1     10       109.4           109.4           0.000    
     20      5      1     10       109.4           109.4           0.000    
     21      4      1     11       109.4           109.4           0.000    
     22      5      1     11       109.4           109.4           0.000    
     23      4      1     12       109.4           109.4           0.000    
     24      5      1     12       109.4           109.4           0.000    
     25      4      1     13       109.4           109.4           0.000    
     26      5      1     13       109.4           109.4           0.000    
     27      4      1     14       109.4           109.4           0.000    
     28      5      1     14       109.4           109.4           0.000    
     29      4      1     15       109.4           109.4           0.000    
     30      5      1     15       109.4           109.4           0.000    
     31      4      1     16       109.4           109.4           0.000    
     32      5      1     16       109.4           109.4           0.000    
     33      4      1     17       109.4           109.4           0.000    
     34      5      1     17       109.4           109.4           0.000    
     35      4     17     17       109.2           109.3           0.000    
     36      5     17     17       109.2           109.3           0.000    
     37      4     18     17       109.2           109.3           0.000    
     38      5     18     17       109.2           109.3           0.000    
     39      4     18     16       109.2           109.3           0.000    
     40      5     18     16       109.2           109.3           0.000    
     41      4     19     16       109.2           109.3           0.000    
     42      5     19     16       109.2           109.3           0.000    
     43      4     19     15       109.1           109.2           0.000    
     44      5     19     15       109.1           109.2           0.000    
     45      4     20     15       109.1           109.2           0.000    
     46      5     20     15       109.1           109.2           0.000    
     47      4     20     14       109.1           109.2           0.000    
     48      5     20     14       109.1           109.2           0.000    
     49      4     20     13       109.1           109.2           0.000    
     50      5     20     13       109.1           109.2           0.000    
     51      4     20     12       109.1           109.2           0.000    
     52      5     20     12       109.1           109.2           0.000    
     53      4     20     11       109.1           109.2           0.000    
     54      5     20     11       109.1           109.2           0.000    
     55      4     21     11       109.1           109.2           0.000    
     56      5     21     11       109.1           109.2           0.000    
     57      4     21     10       109.1           109.2           0.000    
     58      5     21     10       109.1           109.2           0.000    
     59      4     21      9       109.1           109.2           0.000    
     60      5     21      9       109.1           109.2           0.000    
     61      4     21      8       109.1           109.2           0.000    
     62      5     21      8       109.1           109.2           0.000    
     63      4     21      7       109.1           109.2           0.000    
     64      5     21      7       109.1           109.2           0.000    
     65      4     21      6       109.1           109.2           0.000    
     66      5     21      6       109.1           109.2           0.000    
     67      4     21      5       109.1           109.2           0.000    
     68      5     21      5       109.1           109.2           0.000    
     69      4     22      5       109.1           109.2           0.000    
     70      5     22      5       109.1           109.2           0.000    
     71      4     22      4       109.1           109.2           0.000    
     72      5     22      4       109.1           109.2           0.000    
     73      4     22      3       109.1           109.2           0.000    
     74      5     22      3       109.1           109.2           0.000    
     75      4     22      2       109.1           109.2           0.000    
     76      5     22      2       109.1           109.2           0.000    
     77      4     22      1       109.1           109.2           0.000    
     78      5     22      1       109.1           109.2           0.000    


     78 TIME-VARIANT SPECIFIED-HEAD CELLS

 SOLVING FOR HEAD 


     3 CALLS TO PCG ROUTINE FOR TIME STEP   1 IN STRESS PERIOD   53
    47 TOTAL ITERATIONS

 MAXIMUM HEAD CHANGE FOR EACH ITERATION (1 INDICATES THE FIRST INNER ITERATION):

    HEAD CHANGE    HEAD CHANGE    HEAD CHANGE    HEAD CHANGE    HEAD CHANGE 
   LAYER,ROW,COL  LAYER,ROW,COL  LAYER,ROW,COL  LAYER,ROW,COL  LAYER,ROW,COL
 ---------------------------------------------------------------------------
  1  0.2625      0 -0.1994      0  0.1389      0  0.1165      0 -0.9178E-01
   (  5, 21,  2)  (  5, 20,  1)  (  5, 19,  1)  (  5, 20,  1)  (  5, 19,  1)
  0  0.7261E-01  0 -0.4041E-01  0  0.2189E-01  0 -0.1356E-01  0  0.7680E-02
   (  5, 17,  1)  (  5, 16,  1)  (  5, 19,  1)  (  5, 18,  1)  (  5, 14,  4)
  0 -0.6996E-02  0  0.4409E-02  0 -0.3634E-02  0 -0.1764E-02  0 -0.1205E-02
   (  5, 19,  1)  (  5, 16,  3)  (  5, 15,  3)  (  5, 19,  3)  (  5, 14,  5)
  0 -0.8507E-03  0  0.4898E-03  0 -0.3097E-03  0  0.2594E-03  0 -0.2316E-03
   (  5, 17,  2)  (  5, 16,  3)  (  5, 15,  3)  (  5, 17,  2)  (  5, 17,  1)
  0  0.1742E-03  0  0.7855E-04  0 -0.4843E-04  0  0.3729E-04  0 -0.3129E-04
   (  5, 16,  1)  (  5,  6,  1)  (  5,  6,  1)  (  5, 19,  2)  (  5, 19,  1)
  0  0.1822E-04  0 -0.1189E-04  0  0.9816E-05  0 -0.6709E-05  0  0.4083E-05
   (  5, 18,  1)  (  5, 19,  2)  (  5, 19,  3)  (  5, 18,  3)  (  5, 15,  2)
  1  0.3308E-03  0  0.2360E-03  0 -0.1866E-03  0  0.1301E-03  0 -0.9668E-04
   (  5, 18,  3)  (  5, 14,  1)  (  5, 19,  4)  (  5, 19,  2)  (  5, 18,  1)
  0  0.5667E-04  0 -0.3008E-04  0 -0.2709E-04  0  0.1555E-04  0  0.9625E-05
   (  5, 15,  1)  (  5, 14,  1)  (  5, 20,  1)  (  5, 19,  1)  (  5, 16,  5)
  0 -0.5481E-05  0  0.5025E-05  0 -0.3160E-05  0  0.1821E-05  0 -0.1172E-05
   (  5, 15,  5)  (  5, 15,  3)  (  5, 20,  1)  (  5, 13,  1)  (  5, 17,  6)
  0 -0.8698E-06  1  0.9023E-06
   (  5,  7,  1)  (  5,  7,  1)

 MAXIMUM RESIDUAL FOR EACH ITERATION (1 INDICATES THE FIRST INNER ITERATION):

    RESIDUAL       RESIDUAL       RESIDUAL       RESIDUAL       RESIDUAL    
   LAYER,ROW,COL  LAYER,ROW,COL  LAYER,ROW,COL  LAYER,ROW,COL  LAYER,ROW,COL
 ---------------------------------------------------------------------------
  1 -0.5286E-02  0 -0.4164E-02  0 -0.2872E-02  0 -0.1815E-02  0 -0.1114E-02
   (  3, 17, 17)  (  3, 17, 17)  (  3, 17, 17)  (  3, 17, 17)  (  3, 20, 11)
  0 -0.7225E-03  0 -0.4451E-03  0 -0.2702E-03  0 -0.2088E-03  0 -0.1568E-03
   (  3, 20, 11)  (  3, 20, 11)  (  3, 20, 11)  (  4, 16, 17)  (  4, 16, 17)
  0 -0.1158E-03  0 -0.7988E-04  0 -0.5466E-04  0 -0.3640E-04  0 -0.2452E-04
   (  4, 16, 17)  (  4, 16, 17)  (  4, 16, 17)  (  4, 16, 17)  (  4, 16, 17)
  0 -0.1574E-04  0 -0.9963E-05  0 -0.5910E-05  0  0.3493E-05  0  0.2376E-05
   (  4, 16, 17)  (  4, 16, 17)  (  4, 16, 17)  (  3, 21,  6)  (  3, 21,  6)
  0  0.1421E-05  0  0.8228E-06  0 -0.5857E-06  0 -0.4689E-06  0 -0.3897E-06
   (  3, 21,  5)  (  3, 21,  5)  (  3, 17, 17)  (  3, 17, 17)  (  3, 17, 17)
  0 -0.3021E-06  0 -0.2163E-06  0 -0.1486E-06  0 -0.9911E-07  0 -0.6727E-07
   (  3, 17, 17)  (  3, 17, 17)  (  3, 17, 17)  (  3, 17, 17)  (  3, 17, 17)
  1 -0.3903E-05  0  0.1822E-05  0  0.1635E-05  0  0.1014E-05  0  0.8447E-06
   (  3, 18,  3)  (  4, 18,  3)  (  4, 18,  3)  (  4, 18,  3)  (  4, 18,  3)
  0  0.5121E-06  0  0.3131E-06  0  0.2686E-06  0  0.2141E-06  0  0.1539E-06
   (  4, 18,  3)  (  3, 18,  3)  (  3, 18,  3)  (  3, 18,  3)  (  3, 18,  3)
  0  0.1015E-06  0  0.6242E-07  0  0.4162E-07  0  0.3173E-07  0  0.1771E-07
   (  3, 18,  3)  (  3, 18,  3)  (  4, 17,  4)  (  4, 17,  4)  (  4, 17,  2)
  0  0.1253E-07  1  0.1003E-07
   (  4, 17,  2)  (  4, 17,  2)



 OUTPUT CONTROL FOR STRESS PERIOD   53   TIME STEP    1
    SAVE HEAD FOR ALL LAYERS
    SAVE DRAWDOWN FOR ALL LAYERS
    SAVE BUDGET
    PRINT BUDGET
 UBDSV1 SAVING "         STORAGE" ON UNIT   9 AT TIME STEP  1, STRESS PERIOD  53
 UBDSV2 SAVING "   CONSTANT HEAD" ON UNIT   9 AT TIME STEP  1, STRESS PERIOD  53
 UBDSV1 SAVING "FLOW RIGHT FACE " ON UNIT   9 AT TIME STEP  1, STRESS PERIOD  53
 UBDSV1 SAVING "FLOW FRONT FACE " ON UNIT   9 AT TIME STEP  1, STRESS PERIOD  53
 UBDSV1 SAVING "FLOW LOWER FACE " ON UNIT   9 AT TIME STEP  1, STRESS PERIOD  53
 UBDSV3 SAVING "        RECHARGE" ON UNIT   9 AT TIME STEP  1, STRESS PERIOD  53

 HEAD WILL BE SAVED ON UNIT   37 AT END OF TIME STEP    1, STRESS PERIOD   53

 DRAWDOWN WILL BE SAVED ON UNIT   38 AT END OF TIME STEP    1, STRESS PERIOD   53
1
  VOLUMETRIC BUDGET FOR ENTIRE MODEL AT END OF TIME STEP    1, STRESS PERIOD  53
  ------------------------------------------------------------------------------

     CUMULATIVE VOLUMES      L**3       RATES FOR THIS TIME STEP      L**3/T
     ------------------                 ------------------------

           IN:                                      IN:
           ---                                      ---
             STORAGE =       10002.1279               STORAGE =       2.0386E-04
       CONSTANT HEAD =       14829.7188         CONSTANT HEAD =       1.8164E-03
            RECHARGE =         600.0260              RECHARGE =       9.7813E-05

            TOTAL IN =       25431.8730              TOTAL IN =       2.1180E-03

          OUT:                                     OUT:
          ----                                     ----
             STORAGE =        4828.3438               STORAGE =       1.0169E-03
       CONSTANT HEAD =       20604.1387         CONSTANT HEAD =       1.1012E-03
            RECHARGE =           0.0000              RECHARGE =           0.0000

           TOTAL OUT =       25432.4824             TOTAL OUT =       2.1181E-03

            IN - OUT =          -0.6094              IN - OUT =      -1.0128E-07

 PERCENT DISCREPANCY =          -0.00     PERCENT DISCREPANCY =          -0.00






         TIME SUMMARY AT END OF TIME STEP    1 IN STRESS PERIOD   53
                    SECONDS     MINUTES      HOURS       DAYS        YEARS
                    -----------------------------------------------------------
   TIME STEP LENGTH  86400.      1440.0      24.000      1.0000     2.73785E-03
 STRESS PERIOD TIME  86400.      1440.0      24.000      1.0000     2.73785E-03
         TOTAL TIME 6.13440E+06 1.02240E+05  1704.0      71.000     0.19439    
1
1
                            STRESS PERIOD NO.   54, LENGTH =   86400.00    
                            -----------------------------------------------

                              NUMBER OF TIME STEPS =     1

                               MULTIPLIER FOR DELT =     1.000

                            INITIAL TIME STEP SIZE =   86400.00    

 REUSING RECH FROM LAST STRESS PERIOD

 CHD NO.   LAYER   ROW   COL    START HEAD        END HEAD         IFACE           
 ----------------------------------------------------------------------------------
      1      4      1      1       109.4           109.5           0.000    
      2      5      1      1       109.4           109.5           0.000    
      3      4      1      2       109.4           109.5           0.000    
      4      5      1      2       109.4           109.5           0.000    
      5      4      1      3       109.4           109.5           0.000    
      6      5      1      3       109.4           109.5           0.000    
      7      4      1      4       109.4           109.5           0.000    
      8      5      1      4       109.4           109.5           0.000    
      9      4      1      5       109.4           109.5           0.000    
     10      5      1      5       109.4           109.5           0.000    
     11      4      1      6       109.4           109.5           0.000    
     12      5      1      6       109.4           109.5           0.000    
     13      4      1      7       109.4           109.5           0.000    
     14      5      1      7       109.4           109.5           0.000    
     15      4      1      8       109.4           109.5           0.000    
     16      5      1      8       109.4           109.5           0.000    
     17      4      1      9       109.4           109.5           0.000    
     18      5      1      9       109.4           109.5           0.000    
     19      4      1     10       109.4           109.5           0.000    
     20      5      1     10       109.4           109.5           0.000    
     21      4      1     11       109.4           109.5           0.000    
     22      5      1     11       109.4           109.5           0.000    
     23      4      1     12       109.4           109.5           0.000    
     24      5      1     12       109.4           109.5           0.000    
     25      4      1     13       109.4           109.5           0.000    
     26      5      1     13       109.4           109.5           0.000    
     27      4      1     14       109.4           109.5           0.000    
     28      5      1     14       109.4           109.5           0.000    
     29      4      1     15       109.4           109.5           0.000    
     30      5      1     15       109.4           109.5           0.000    
     31      4      1     16       109.4           109.5           0.000    
     32      5      1     16       109.4           109.5           0.000    
     33      4      1     17       109.4           109.5           0.000    
     34      5      1     17       109.4           109.5           0.000    
     35      4     17     17       109.3           109.3           0.000    
     36      5     17     17       109.3           109.3           0.000    
     37      4     18     17       109.3           109.3           0.000    
     38      5     18     17       109.3           109.3           0.000    
     39      4     18     16       109.3           109.3           0.000    
     40      5     18     16       109.3           109.3           0.000    
     41      4     19     16       109.3           109.3           0.000    
     42      5     19     16       109.3           109.3           0.000    
     43      4     19     15       109.2           109.2           0.000    
     44      5     19     15       109.2           109.2           0.000    
     45      4     20     15       109.2           109.2           0.000    
     46      5     20     15       109.2           109.2           0.000    
     47      4     20     14       109.2           109.2           0.000    
     48      5     20     14       109.2           109.2           0.000    
     49      4     20     13       109.2           109.2           0.000    
     50      5     20     13       109.2           109.2           0.000    
     51      4     20     12       109.2           109.2           0.000    
     52      5     20     12       109.2           109.2           0.000    
     53      4     20     11       109.2           109.2           0.000    
     54      5     20     11       109.2           109.2           0.000    
     55      4     21     11       109.2           109.2           0.000    
     56      5     21     11       109.2           109.2           0.000    
     57      4     21     10       109.2           109.2           0.000    
     58      5     21     10       109.2           109.2           0.000    
     59      4     21      9       109.2           109.2           0.000    
     60      5     21      9       109.2           109.2           0.000    
     61      4     21      8       109.2           109.2           0.000    
     62      5     21      8       109.2           109.2           0.000    
     63      4     21      7       109.2           109.2           0.000    
     64      5     21      7       109.2           109.2           0.000    
     65      4     21      6       109.2           109.2           0.000    
     66      5     21      6       109.2           109.2           0.000    
     67      4     21      5       109.2           109.2           0.000    
     68      5     21      5       109.2           109.2           0.000    
     69      4     22      5       109.2           109.2           0.000    
     70      5     22      5       109.2           109.2           0.000    
     71      4     22      4       109.2           109.2           0.000    
     72      5     22      4       109.2           109.2           0.000    
     73      4     22      3       109.2           109.2           0.000    
     74      5     22      3       109.2           109.2           0.000    
     75      4     22      2       109.2           109.2           0.000    
     76      5     22      2       109.2           109.2           0.000    
     77      4     22      1       109.2           109.2           0.000    
     78      5     22      1       109.2           109.2           0.000    


     78 TIME-VARIANT SPECIFIED-HEAD CELLS

 SOLVING FOR HEAD 


     3 CALLS TO PCG ROUTINE FOR TIME STEP   1 IN STRESS PERIOD   54
    43 TOTAL ITERATIONS

 MAXIMUM HEAD CHANGE FOR EACH ITERATION (1 INDICATES THE FIRST INNER ITERATION):

    HEAD CHANGE    HEAD CHANGE    HEAD CHANGE    HEAD CHANGE    HEAD CHANGE 
   LAYER,ROW,COL  LAYER,ROW,COL  LAYER,ROW,COL  LAYER,ROW,COL  LAYER,ROW,COL
 ---------------------------------------------------------------------------
  1  0.2001E-01  0 -0.2480E-01  0  0.1658E-01  0 -0.8636E-02  0  0.5587E-02
   (  5, 19,  2)  (  5, 18,  1)  (  5, 17,  1)  (  5, 15,  1)  (  5, 13,  1)
  0  0.2561E-02  0  0.2446E-02  0  0.2187E-02  0  0.1493E-02  0  0.9109E-03
   (  5, 11,  4)  (  5, 14,  3)  (  5, 10,  1)  (  5, 14,  1)  (  5, 12,  2)
  0 -0.7866E-03  0  0.5255E-03  0  0.1970E-03  0  0.1287E-03  0 -0.1162E-03
   (  5, 20,  1)  (  5, 20,  1)  (  5, 17,  1)  (  5, 15,  5)  (  5, 15,  4)
  0  0.6918E-04  0 -0.4348E-04  0 -0.3806E-04  0  0.3293E-04  0 -0.3371E-04
   (  5, 13,  5)  (  5, 14,  6)  (  5, 18,  1)  (  5, 18,  1)  (  5, 16,  1)
  0  0.1307E-04  0  0.1176E-04  0  0.8218E-05  0 -0.4915E-05  0  0.3860E-05
   (  5,  6,  1)  (  5, 20,  3)  (  5,  6,  1)  (  5, 20,  3)  (  5, 18,  1)
  0 -0.2720E-05  0 -0.1047E-05  0  0.1144E-05  0 -0.7150E-06  1  0.5891E-04
   (  5, 19,  1)  (  5,  7,  1)  (  5,  7,  1)  (  5,  7,  1)  (  5, 17,  3)
  0  0.5308E-04  0  0.4158E-04  0 -0.2787E-04  0  0.2979E-04  0 -0.1325E-04
   (  5, 12,  1)  (  5, 18,  1)  (  5, 19,  1)  (  5, 20,  1)  (  5, 18,  2)
  0  0.1340E-04  0 -0.7799E-05  0 -0.4639E-05  0 -0.3999E-05  0 -0.1846E-05
   (  5, 16,  1)  (  5, 16,  1)  (  5, 10,  2)  (  5, 15,  3)  (  5, 12,  1)
  0 -0.1465E-05  0 -0.8037E-06  1  0.5783E-06
   (  5, 20,  1)  (  5, 13,  6)  (  5, 13,  6)

 MAXIMUM RESIDUAL FOR EACH ITERATION (1 INDICATES THE FIRST INNER ITERATION):

    RESIDUAL       RESIDUAL       RESIDUAL       RESIDUAL       RESIDUAL    
   LAYER,ROW,COL  LAYER,ROW,COL  LAYER,ROW,COL  LAYER,ROW,COL  LAYER,ROW,COL
 ---------------------------------------------------------------------------
  1 -0.1319E-03  0 -0.7683E-04  0  0.5142E-04  0  0.3847E-04  0  0.3018E-04
   (  4,  2, 17)  (  4,  2, 17)  (  5, 16, 17)  (  5, 16, 17)  (  5, 16, 17)
  0  0.2238E-04  0  0.1583E-04  0  0.1044E-04  0  0.6646E-05  0  0.3894E-05
   (  5, 16, 17)  (  5, 16, 17)  (  5, 16, 17)  (  5, 15, 17)  (  5,  5, 17)
  0  0.2964E-05  0  0.2079E-05  0  0.1439E-05  0 -0.9701E-06  0 -0.9090E-06
   (  5,  4, 17)  (  5,  3, 17)  (  5,  3, 17)  (  5, 16, 17)  (  5, 16, 17)
  0 -0.7347E-06  0 -0.5306E-06  0 -0.3436E-06  0 -0.2593E-06  0 -0.1811E-06
   (  5, 16, 17)  (  5, 16, 17)  (  5, 16, 17)  (  5, 16, 17)  (  5, 16, 17)
  0 -0.1166E-06  0 -0.7474E-07  0  0.5612E-07  0  0.4708E-07  0  0.3949E-07
   (  5, 16, 17)  (  5, 16, 17)  (  3, 17, 17)  (  3, 17, 17)  (  3, 17, 17)
  0  0.2970E-07  0  0.2014E-07  0  0.1402E-07  0  0.9639E-08  1 -0.6898E-06
   (  3, 17, 17)  (  3, 17, 17)  (  3, 17, 17)  (  3, 17, 17)  (  3, 17,  3)
  0 -0.3637E-06  0  0.2149E-06  0  0.1325E-06  0  0.7968E-07  0  0.8546E-07
   (  3, 17,  3)  (  4, 17,  3)  (  4, 17,  3)  (  4, 17,  3)  (  4, 17,  3)
  0  0.6259E-07  0  0.3961E-07  0  0.3234E-07  0  0.2671E-07  0  0.1911E-07
   (  4, 17,  3)  (  4, 17,  3)  (  3, 17,  3)  (  3, 17,  3)  (  3, 17,  3)
  0  0.1363E-07  0  0.9036E-08  1  0.8020E-08
   (  3, 17,  3)  (  3, 17,  3)  (  3, 17,  3)



 OUTPUT CONTROL FOR STRESS PERIOD   54   TIME STEP    1
    SAVE HEAD FOR ALL LAYERS
    SAVE DRAWDOWN FOR ALL LAYERS
    SAVE BUDGET
    PRINT BUDGET
 UBDSV1 SAVING "         STORAGE" ON UNIT   9 AT TIME STEP  1, STRESS PERIOD  54
 UBDSV2 SAVING "   CONSTANT HEAD" ON UNIT   9 AT TIME STEP  1, STRESS PERIOD  54
 UBDSV1 SAVING "FLOW RIGHT FACE " ON UNIT   9 AT TIME STEP  1, STRESS PERIOD  54
 UBDSV1 SAVING "FLOW FRONT FACE " ON UNIT   9 AT TIME STEP  1, STRESS PERIOD  54
 UBDSV1 SAVING "FLOW LOWER FACE " ON UNIT   9 AT TIME STEP  1, STRESS PERIOD  54
 UBDSV3 SAVING "        RECHARGE" ON UNIT   9 AT TIME STEP  1, STRESS PERIOD  54

 HEAD WILL BE SAVED ON UNIT   37 AT END OF TIME STEP    1, STRESS PERIOD   54

 DRAWDOWN WILL BE SAVED ON UNIT   38 AT END OF TIME STEP    1, STRESS PERIOD   54
1
  VOLUMETRIC BUDGET FOR ENTIRE MODEL AT END OF TIME STEP    1, STRESS PERIOD  54
  ------------------------------------------------------------------------------

     CUMULATIVE VOLUMES      L**3       RATES FOR THIS TIME STEP      L**3/T
     ------------------                 ------------------------

           IN:                                      IN:
           ---                                      ---
             STORAGE =       10002.1279               STORAGE =           0.0000
       CONSTANT HEAD =       15043.2451         CONSTANT HEAD =       2.4714E-03
            RECHARGE =         608.4771              RECHARGE =       9.7813E-05

            TOTAL IN =       25653.8496              TOTAL IN =       2.5692E-03

          OUT:                                     OUT:
          ----                                     ----
             STORAGE =        4881.6738               STORAGE =       6.1725E-04
       CONSTANT HEAD =       20772.7949         CONSTANT HEAD =       1.9520E-03
            RECHARGE =           0.0000              RECHARGE =           0.0000

           TOTAL OUT =       25654.4688             TOTAL OUT =       2.5693E-03

            IN - OUT =          -0.6191              IN - OUT =      -1.0058E-07

 PERCENT DISCREPANCY =          -0.00     PERCENT DISCREPANCY =          -0.00






         TIME SUMMARY AT END OF TIME STEP    1 IN STRESS PERIOD   54
                    SECONDS     MINUTES      HOURS       DAYS        YEARS
                    -----------------------------------------------------------
   TIME STEP LENGTH  86400.      1440.0      24.000      1.0000     2.73785E-03
 STRESS PERIOD TIME  86400.      1440.0      24.000      1.0000     2.73785E-03
         TOTAL TIME 6.22080E+06 1.03680E+05  1728.0      72.000     0.19713    
1
1
                            STRESS PERIOD NO.   55, LENGTH =   86400.00    
                            -----------------------------------------------

                              NUMBER OF TIME STEPS =     1

                               MULTIPLIER FOR DELT =     1.000

                            INITIAL TIME STEP SIZE =   86400.00    

 REUSING RECH FROM LAST STRESS PERIOD

 CHD NO.   LAYER   ROW   COL    START HEAD        END HEAD         IFACE           
 ----------------------------------------------------------------------------------
      1      4      1      1       109.5           109.4           0.000    
      2      5      1      1       109.5           109.4           0.000    
      3      4      1      2       109.5           109.4           0.000    
      4      5      1      2       109.5           109.4           0.000    
      5      4      1      3       109.5           109.4           0.000    
      6      5      1      3       109.5           109.4           0.000    
      7      4      1      4       109.5           109.4           0.000    
      8      5      1      4       109.5           109.4           0.000    
      9      4      1      5       109.5           109.4           0.000    
     10      5      1      5       109.5           109.4           0.000    
     11      4      1      6       109.5           109.4           0.000    
     12      5      1      6       109.5           109.4           0.000    
     13      4      1      7       109.5           109.4           0.000    
     14      5      1      7       109.5           109.4           0.000    
     15      4      1      8       109.5           109.4           0.000    
     16      5      1      8       109.5           109.4           0.000    
     17      4      1      9       109.5           109.4           0.000    
     18      5      1      9       109.5           109.4           0.000    
     19      4      1     10       109.5           109.4           0.000    
     20      5      1     10       109.5           109.4           0.000    
     21      4      1     11       109.5           109.4           0.000    
     22      5      1     11       109.5           109.4           0.000    
     23      4      1     12       109.5           109.4           0.000    
     24      5      1     12       109.5           109.4           0.000    
     25      4      1     13       109.5           109.4           0.000    
     26      5      1     13       109.5           109.4           0.000    
     27      4      1     14       109.5           109.4           0.000    
     28      5      1     14       109.5           109.4           0.000    
     29      4      1     15       109.5           109.4           0.000    
     30      5      1     15       109.5           109.4           0.000    
     31      4      1     16       109.5           109.4           0.000    
     32      5      1     16       109.5           109.4           0.000    
     33      4      1     17       109.5           109.4           0.000    
     34      5      1     17       109.5           109.4           0.000    
     35      4     17     17       109.3           109.2           0.000    
     36      5     17     17       109.3           109.2           0.000    
     37      4     18     17       109.3           109.2           0.000    
     38      5     18     17       109.3           109.2           0.000    
     39      4     18     16       109.3           109.2           0.000    
     40      5     18     16       109.3           109.2           0.000    
     41      4     19     16       109.3           109.2           0.000    
     42      5     19     16       109.3           109.2           0.000    
     43      4     19     15       109.2           109.2           0.000    
     44      5     19     15       109.2           109.2           0.000    
     45      4     20     15       109.2           109.2           0.000    
     46      5     20     15       109.2           109.2           0.000    
     47      4     20     14       109.2           109.2           0.000    
     48      5     20     14       109.2           109.2           0.000    
     49      4     20     13       109.2           109.2           0.000    
     50      5     20     13       109.2           109.2           0.000    
     51      4     20     12       109.2           109.2           0.000    
     52      5     20     12       109.2           109.2           0.000    
     53      4     20     11       109.2           109.2           0.000    
     54      5     20     11       109.2           109.2           0.000    
     55      4     21     11       109.2           109.2           0.000    
     56      5     21     11       109.2           109.2           0.000    
     57      4     21     10       109.2           109.2           0.000    
     58      5     21     10       109.2           109.2           0.000    
     59      4     21      9       109.2           109.2           0.000    
     60      5     21      9       109.2           109.2           0.000    
     61      4     21      8       109.2           109.2           0.000    
     62      5     21      8       109.2           109.2           0.000    
     63      4     21      7       109.2           109.2           0.000    
     64      5     21      7       109.2           109.2           0.000    
     65      4     21      6       109.2           109.2           0.000    
     66      5     21      6       109.2           109.2           0.000    
     67      4     21      5       109.2           109.2           0.000    
     68      5     21      5       109.2           109.2           0.000    
     69      4     22      5       109.2           109.2           0.000    
     70      5     22      5       109.2           109.2           0.000    
     71      4     22      4       109.2           109.2           0.000    
     72      5     22      4       109.2           109.2           0.000    
     73      4     22      3       109.2           109.2           0.000    
     74      5     22      3       109.2           109.2           0.000    
     75      4     22      2       109.2           109.2           0.000    
     76      5     22      2       109.2           109.2           0.000    
     77      4     22      1       109.2           109.2           0.000    
     78      5     22      1       109.2           109.2           0.000    


     78 TIME-VARIANT SPECIFIED-HEAD CELLS

 SOLVING FOR HEAD 


     3 CALLS TO PCG ROUTINE FOR TIME STEP   1 IN STRESS PERIOD   55
    40 TOTAL ITERATIONS

 MAXIMUM HEAD CHANGE FOR EACH ITERATION (1 INDICATES THE FIRST INNER ITERATION):

    HEAD CHANGE    HEAD CHANGE    HEAD CHANGE    HEAD CHANGE    HEAD CHANGE 
   LAYER,ROW,COL  LAYER,ROW,COL  LAYER,ROW,COL  LAYER,ROW,COL  LAYER,ROW,COL
 ---------------------------------------------------------------------------
  1 -0.3056E-01  0  0.2467E-01  0  0.1428E-01  0 -0.1367E-01  0  0.1159E-01
   (  5, 21,  2)  (  5, 20,  1)  (  5, 21,  3)  (  5, 20,  1)  (  5, 18,  1)
  0 -0.8031E-02  0  0.3118E-02  0 -0.1885E-02  0 -0.1848E-02  0 -0.1232E-02
   (  5, 17,  1)  (  5, 16,  1)  (  5, 19,  1)  (  5, 12,  3)  (  5, 14,  4)
  0 -0.8031E-03  0 -0.6564E-03  0  0.4150E-03  0 -0.2379E-03  0 -0.1424E-03
   (  5,  9,  1)  (  5, 16,  3)  (  5, 15,  3)  (  5, 20,  1)  (  5, 18,  2)
  0  0.9238E-04  0 -0.6263E-04  0  0.4424E-04  0 -0.3332E-04  0  0.2965E-04
   (  5, 17,  2)  (  5, 16,  3)  (  5, 15,  3)  (  5, 17,  2)  (  5, 17,  1)
  0 -0.1663E-04  0 -0.9935E-05  0 -0.5849E-05  0 -0.5145E-05  0 -0.3571E-05
   (  5, 16,  1)  (  5, 10,  3)  (  5,  6,  2)  (  5,  7,  1)  (  5, 13,  1)
  0 -0.2993E-05  0 -0.1727E-05  0 -0.1027E-05  0 -0.7725E-06  1  0.2234E-04
   (  5, 18,  1)  (  5,  7,  1)  (  5, 19,  3)  (  5,  6,  1)  (  3,  9,  4)
  0 -0.1801E-04  0  0.1884E-04  0 -0.1137E-04  0  0.8708E-05  0 -0.5091E-05
   (  5, 11,  5)  (  5, 17,  1)  (  5, 19,  1)  (  5, 12,  1)  (  5, 13,  1)
  0 -0.3864E-05  0  0.2982E-05  0 -0.1564E-05  0  0.6797E-06  1 -0.6564E-06
   (  5, 19,  1)  (  5, 20,  1)  (  5, 20,  1)  (  5, 11,  2)  (  5, 17,  1)

 MAXIMUM RESIDUAL FOR EACH ITERATION (1 INDICATES THE FIRST INNER ITERATION):

    RESIDUAL       RESIDUAL       RESIDUAL       RESIDUAL       RESIDUAL    
   LAYER,ROW,COL  LAYER,ROW,COL  LAYER,ROW,COL  LAYER,ROW,COL  LAYER,ROW,COL
 ---------------------------------------------------------------------------
  1  0.3016E-03  0  0.2154E-03  0  0.1316E-03  0  0.7666E-04  0  0.4877E-04
   (  3, 17, 17)  (  3, 17, 17)  (  3, 17, 17)  (  3, 17, 17)  (  3, 20, 11)
  0  0.3088E-04  0  0.2583E-04  0  0.2218E-04  0 -0.1698E-04  0 -0.1159E-04
   (  3, 20, 11)  (  4, 16, 17)  (  4, 16, 17)  (  5, 16, 17)  (  5, 16, 17)
  0 -0.7419E-05  0 -0.3819E-05  0 -0.2243E-05  0 -0.1738E-05  0 -0.1344E-05
   (  5, 16, 17)  (  5, 16, 17)  (  3, 21,  6)  (  3, 21,  6)  (  3, 21,  6)
  0 -0.9912E-06  0 -0.6995E-06  0 -0.4591E-06  0 -0.3166E-06  0 -0.2265E-06
   (  3, 21,  6)  (  3, 21,  6)  (  3, 21,  6)  (  3, 21,  6)  (  3, 21,  6)
  0 -0.1236E-06  0  0.8022E-07  0  0.5505E-07  0  0.4168E-07  0  0.3072E-07
   (  3, 21,  6)  (  4, 19,  2)  (  4, 19,  2)  (  4, 20,  2)  (  4, 20,  2)
  0 -0.2185E-07  0 -0.1436E-07  0 -0.9314E-08  0 -0.6050E-08  1 -0.1527E-06
   (  3, 20, 11)  (  3, 20, 11)  (  3, 20, 11)  (  3, 20, 11)  (  3,  9,  4)
  0 -0.9383E-07  0 -0.5606E-07  0  0.3682E-07  0  0.2495E-07  0  0.1920E-07
   (  3,  9,  4)  (  3,  9,  4)  (  5,  3, 17)  (  5,  2, 10)  (  5,  2, 10)
  0  0.1237E-07  0  0.8988E-08  0  0.8252E-08  0  0.6825E-08  1  0.6187E-08
   (  5,  2, 10)  (  3,  9,  4)  (  3,  9,  4)  (  3,  9,  4)  (  3,  9,  4)



 OUTPUT CONTROL FOR STRESS PERIOD   55   TIME STEP    1
    SAVE HEAD FOR ALL LAYERS
    SAVE DRAWDOWN FOR ALL LAYERS
    SAVE BUDGET
    PRINT BUDGET
 UBDSV1 SAVING "         STORAGE" ON UNIT   9 AT TIME STEP  1, STRESS PERIOD  55
 UBDSV2 SAVING "   CONSTANT HEAD" ON UNIT   9 AT TIME STEP  1, STRESS PERIOD  55
 UBDSV1 SAVING "FLOW RIGHT FACE " ON UNIT   9 AT TIME STEP  1, STRESS PERIOD  55
 UBDSV1 SAVING "FLOW FRONT FACE " ON UNIT   9 AT TIME STEP  1, STRESS PERIOD  55
 UBDSV1 SAVING "FLOW LOWER FACE " ON UNIT   9 AT TIME STEP  1, STRESS PERIOD  55
 UBDSV3 SAVING "        RECHARGE" ON UNIT   9 AT TIME STEP  1, STRESS PERIOD  55

 HEAD WILL BE SAVED ON UNIT   37 AT END OF TIME STEP    1, STRESS PERIOD   55

 DRAWDOWN WILL BE SAVED ON UNIT   38 AT END OF TIME STEP    1, STRESS PERIOD   55
1
  VOLUMETRIC BUDGET FOR ENTIRE MODEL AT END OF TIME STEP    1, STRESS PERIOD  55
  ------------------------------------------------------------------------------

     CUMULATIVE VOLUMES      L**3       RATES FOR THIS TIME STEP      L**3/T
     ------------------                 ------------------------

           IN:                                      IN:
           ---                                      ---
             STORAGE =       10028.6650               STORAGE =       3.0714E-04
       CONSTANT HEAD =       15196.0713         CONSTANT HEAD =       1.7688E-03
            RECHARGE =         616.9281              RECHARGE =       9.7813E-05

            TOTAL IN =       25841.6641              TOTAL IN =       2.1738E-03

          OUT:                                     OUT:
          ----                                     ----
             STORAGE =        4881.6738               STORAGE =           0.0000
       CONSTANT HEAD =       20960.6191         CONSTANT HEAD =       2.1739E-03
            RECHARGE =           0.0000              RECHARGE =           0.0000

           TOTAL OUT =       25842.2930             TOTAL OUT =       2.1739E-03

            IN - OUT =          -0.6289              IN - OUT =      -1.0571E-07

 PERCENT DISCREPANCY =          -0.00     PERCENT DISCREPANCY =          -0.00






         TIME SUMMARY AT END OF TIME STEP    1 IN STRESS PERIOD   55
                    SECONDS     MINUTES      HOURS       DAYS        YEARS
                    -----------------------------------------------------------
   TIME STEP LENGTH  86400.      1440.0      24.000      1.0000     2.73785E-03
 STRESS PERIOD TIME  86400.      1440.0      24.000      1.0000     2.73785E-03
         TOTAL TIME 6.30720E+06 1.05120E+05  1752.0      73.000     0.19986    
1
1
                            STRESS PERIOD NO.   56, LENGTH =   86400.00    
                            -----------------------------------------------

                              NUMBER OF TIME STEPS =     1

                               MULTIPLIER FOR DELT =     1.000

                            INITIAL TIME STEP SIZE =   86400.00    

 REUSING RECH FROM LAST STRESS PERIOD

 CHD NO.   LAYER   ROW   COL    START HEAD        END HEAD         IFACE           
 ----------------------------------------------------------------------------------
      1      4      1      1       109.4           109.4           0.000    
      2      5      1      1       109.4           109.4           0.000    
      3      4      1      2       109.4           109.4           0.000    
      4      5      1      2       109.4           109.4           0.000    
      5      4      1      3       109.4           109.4           0.000    
      6      5      1      3       109.4           109.4           0.000    
      7      4      1      4       109.4           109.4           0.000    
      8      5      1      4       109.4           109.4           0.000    
      9      4      1      5       109.4           109.4           0.000    
     10      5      1      5       109.4           109.4           0.000    
     11      4      1      6       109.4           109.4           0.000    
     12      5      1      6       109.4           109.4           0.000    
     13      4      1      7       109.4           109.4           0.000    
     14      5      1      7       109.4           109.4           0.000    
     15      4      1      8       109.4           109.4           0.000    
     16      5      1      8       109.4           109.4           0.000    
     17      4      1      9       109.4           109.4           0.000    
     18      5      1      9       109.4           109.4           0.000    
     19      4      1     10       109.4           109.4           0.000    
     20      5      1     10       109.4           109.4           0.000    
     21      4      1     11       109.4           109.4           0.000    
     22      5      1     11       109.4           109.4           0.000    
     23      4      1     12       109.4           109.4           0.000    
     24      5      1     12       109.4           109.4           0.000    
     25      4      1     13       109.4           109.4           0.000    
     26      5      1     13       109.4           109.4           0.000    
     27      4      1     14       109.4           109.4           0.000    
     28      5      1     14       109.4           109.4           0.000    
     29      4      1     15       109.4           109.4           0.000    
     30      5      1     15       109.4           109.4           0.000    
     31      4      1     16       109.4           109.4           0.000    
     32      5      1     16       109.4           109.4           0.000    
     33      4      1     17       109.4           109.4           0.000    
     34      5      1     17       109.4           109.4           0.000    
     35      4     17     17       109.2           109.2           0.000    
     36      5     17     17       109.2           109.2           0.000    
     37      4     18     17       109.2           109.2           0.000    
     38      5     18     17       109.2           109.2           0.000    
     39      4     18     16       109.2           109.2           0.000    
     40      5     18     16       109.2           109.2           0.000    
     41      4     19     16       109.2           109.2           0.000    
     42      5     19     16       109.2           109.2           0.000    
     43      4     19     15       109.2           109.2           0.000    
     44      5     19     15       109.2           109.2           0.000    
     45      4     20     15       109.2           109.2           0.000    
     46      5     20     15       109.2           109.2           0.000    
     47      4     20     14       109.2           109.2           0.000    
     48      5     20     14       109.2           109.2           0.000    
     49      4     20     13       109.2           109.2           0.000    
     50      5     20     13       109.2           109.2           0.000    
     51      4     20     12       109.2           109.2           0.000    
     52      5     20     12       109.2           109.2           0.000    
     53      4     20     11       109.2           109.2           0.000    
     54      5     20     11       109.2           109.2           0.000    
     55      4     21     11       109.2           109.2           0.000    
     56      5     21     11       109.2           109.2           0.000    
     57      4     21     10       109.2           109.2           0.000    
     58      5     21     10       109.2           109.2           0.000    
     59      4     21      9       109.2           109.2           0.000    
     60      5     21      9       109.2           109.2           0.000    
     61      4     21      8       109.2           109.2           0.000    
     62      5     21      8       109.2           109.2           0.000    
     63      4     21      7       109.2           109.2           0.000    
     64      5     21      7       109.2           109.2           0.000    
     65      4     21      6       109.2           109.2           0.000    
     66      5     21      6       109.2           109.2           0.000    
     67      4     21      5       109.2           109.2           0.000    
     68      5     21      5       109.2           109.2           0.000    
     69      4     22      5       109.2           109.2           0.000    
     70      5     22      5       109.2           109.2           0.000    
     71      4     22      4       109.2           109.2           0.000    
     72      5     22      4       109.2           109.2           0.000    
     73      4     22      3       109.2           109.2           0.000    
     74      5     22      3       109.2           109.2           0.000    
     75      4     22      2       109.2           109.2           0.000    
     76      5     22      2       109.2           109.2           0.000    
     77      4     22      1       109.2           109.2           0.000    
     78      5     22      1       109.2           109.2           0.000    


     78 TIME-VARIANT SPECIFIED-HEAD CELLS

 SOLVING FOR HEAD 


     3 CALLS TO PCG ROUTINE FOR TIME STEP   1 IN STRESS PERIOD   56
    35 TOTAL ITERATIONS

 MAXIMUM HEAD CHANGE FOR EACH ITERATION (1 INDICATES THE FIRST INNER ITERATION):

    HEAD CHANGE    HEAD CHANGE    HEAD CHANGE    HEAD CHANGE    HEAD CHANGE 
   LAYER,ROW,COL  LAYER,ROW,COL  LAYER,ROW,COL  LAYER,ROW,COL  LAYER,ROW,COL
 ---------------------------------------------------------------------------
  1 -0.9800E-02  0  0.8274E-02  0 -0.4486E-02  0  0.2771E-02  0 -0.1872E-02
   (  5, 21,  2)  (  5, 20,  1)  (  5, 18,  1)  (  5, 16,  1)  (  5, 15,  1)
  0  0.1035E-02  0 -0.9451E-03  0 -0.5901E-03  0 -0.4599E-03  0  0.2330E-03
   (  5, 19,  1)  (  5, 18,  1)  (  5, 16,  3)  (  5, 11,  2)  (  5, 16,  3)
  0 -0.1988E-03  0 -0.1164E-03  0  0.8879E-04  0 -0.4637E-04  0  0.3223E-04
   (  5,  9,  1)  (  5, 16,  3)  (  5, 15,  3)  (  5, 14,  3)  (  5, 14,  4)
  0 -0.1952E-04  0 -0.1645E-04  0  0.1156E-04  0 -0.9279E-05  0 -0.6397E-05
   (  5, 15,  3)  (  5,  6,  1)  (  5,  6,  1)  (  5,  6,  1)  (  5, 15,  1)
  0  0.3911E-05  0 -0.2542E-05  0 -0.1734E-05  0 -0.1698E-05  0 -0.9546E-06
   (  5, 17,  1)  (  5, 16,  1)  (  5, 13,  1)  (  5, 18,  1)  (  5, 15,  4)
  1 -0.1052E-04  0  0.9044E-05  0  0.6615E-05  0 -0.7494E-05  0  0.6785E-05
   (  2,  8,  5)  (  2,  2,  9)  (  5, 14,  1)  (  5, 14,  1)  (  5, 19,  1)
  0 -0.4370E-05  0  0.2114E-05  0  0.1363E-05  0 -0.7440E-06  1  0.6490E-06
   (  5, 18,  1)  (  5, 17,  1)  (  5, 10,  1)  (  5, 13,  3)  (  5, 13,  3)

 MAXIMUM RESIDUAL FOR EACH ITERATION (1 INDICATES THE FIRST INNER ITERATION):

    RESIDUAL       RESIDUAL       RESIDUAL       RESIDUAL       RESIDUAL    
   LAYER,ROW,COL  LAYER,ROW,COL  LAYER,ROW,COL  LAYER,ROW,COL  LAYER,ROW,COL
 ---------------------------------------------------------------------------
  1  0.3147E-04  0 -0.2896E-04  0 -0.2320E-04  0 -0.1707E-04  0 -0.1156E-04
   (  3, 17, 17)  (  5, 16, 17)  (  5, 16, 17)  (  5, 16, 17)  (  5, 16, 17)
  0 -0.7195E-05  0 -0.4501E-05  0 -0.3292E-05  0 -0.2405E-05  0 -0.1830E-05
   (  5, 16, 17)  (  5, 16, 17)  (  5,  3, 17)  (  5,  2, 17)  (  5,  2, 17)
  0 -0.1284E-05  0 -0.8084E-06  0 -0.4985E-06  0 -0.2807E-06  0 -0.2473E-06
   (  5,  2, 17)  (  5,  2, 17)  (  5,  2, 17)  (  4, 21,  2)  (  4, 21,  2)
  0 -0.1852E-06  0 -0.1229E-06  0 -0.7384E-07  0  0.5091E-07  0  0.3785E-07
   (  4, 21,  2)  (  4, 21,  2)  (  4, 21,  2)  (  5, 16, 17)  (  5, 16, 17)
  0  0.2665E-07  0 -0.2015E-07  0 -0.1596E-07  0 -0.1262E-07  0 -0.9319E-08
   (  5, 16, 17)  (  3, 17, 17)  (  3, 17, 17)  (  3, 17, 17)  (  3, 17, 17)
  1 -0.7456E-07  0 -0.4097E-07  0 -0.2932E-07  0  0.2047E-07  0  0.1358E-07
   (  3, 17,  3)  (  3, 17,  3)  (  2,  2,  9)  (  5,  3, 10)  (  5,  3, 17)
  0  0.1091E-07  0  0.7722E-08  0  0.5930E-08  0  0.5097E-08  1  0.4620E-08
   (  5,  2, 10)  (  5,  2, 10)  (  3, 17,  3)  (  3, 17,  3)  (  3, 17,  3)



 OUTPUT CONTROL FOR STRESS PERIOD   56   TIME STEP    1
    SAVE HEAD FOR ALL LAYERS
    SAVE DRAWDOWN FOR ALL LAYERS
    SAVE BUDGET
    PRINT BUDGET
 UBDSV1 SAVING "         STORAGE" ON UNIT   9 AT TIME STEP  1, STRESS PERIOD  56
 UBDSV2 SAVING "   CONSTANT HEAD" ON UNIT   9 AT TIME STEP  1, STRESS PERIOD  56
 UBDSV1 SAVING "FLOW RIGHT FACE " ON UNIT   9 AT TIME STEP  1, STRESS PERIOD  56
 UBDSV1 SAVING "FLOW FRONT FACE " ON UNIT   9 AT TIME STEP  1, STRESS PERIOD  56
 UBDSV1 SAVING "FLOW LOWER FACE " ON UNIT   9 AT TIME STEP  1, STRESS PERIOD  56
 UBDSV3 SAVING "        RECHARGE" ON UNIT   9 AT TIME STEP  1, STRESS PERIOD  56

 HEAD WILL BE SAVED ON UNIT   37 AT END OF TIME STEP    1, STRESS PERIOD   56

 DRAWDOWN WILL BE SAVED ON UNIT   38 AT END OF TIME STEP    1, STRESS PERIOD   56
1
  VOLUMETRIC BUDGET FOR ENTIRE MODEL AT END OF TIME STEP    1, STRESS PERIOD  56
  ------------------------------------------------------------------------------

     CUMULATIVE VOLUMES      L**3       RATES FOR THIS TIME STEP      L**3/T
     ------------------                 ------------------------

           IN:                                      IN:
           ---                                      ---
             STORAGE =       10048.9053               STORAGE =       2.3426E-04
       CONSTANT HEAD =       15344.9736         CONSTANT HEAD =       1.7234E-03
            RECHARGE =         625.3792              RECHARGE =       9.7813E-05

            TOTAL IN =       26019.2578              TOTAL IN =       2.0555E-03

          OUT:                                     OUT:
          ----                                     ----
             STORAGE =        4881.6738               STORAGE =           0.0000
       CONSTANT HEAD =       21138.2207         CONSTANT HEAD =       2.0556E-03
            RECHARGE =           0.0000              RECHARGE =           0.0000

           TOTAL OUT =       26019.8945             TOTAL OUT =       2.0556E-03

            IN - OUT =          -0.6367              IN - OUT =      -9.6858E-08

 PERCENT DISCREPANCY =          -0.00     PERCENT DISCREPANCY =          -0.00






         TIME SUMMARY AT END OF TIME STEP    1 IN STRESS PERIOD   56
                    SECONDS     MINUTES      HOURS       DAYS        YEARS
                    -----------------------------------------------------------
   TIME STEP LENGTH  86400.      1440.0      24.000      1.0000     2.73785E-03
 STRESS PERIOD TIME  86400.      1440.0      24.000      1.0000     2.73785E-03
         TOTAL TIME 6.39360E+06 1.06560E+05  1776.0      74.000     0.20260    
1
1
                            STRESS PERIOD NO.   57, LENGTH =   86400.00    
                            -----------------------------------------------

                              NUMBER OF TIME STEPS =     1

                               MULTIPLIER FOR DELT =     1.000

                            INITIAL TIME STEP SIZE =   86400.00    

 REUSING RECH FROM LAST STRESS PERIOD

 CHD NO.   LAYER   ROW   COL    START HEAD        END HEAD         IFACE           
 ----------------------------------------------------------------------------------
      1      4      1      1       109.4           109.5           0.000    
      2      5      1      1       109.4           109.5           0.000    
      3      4      1      2       109.4           109.5           0.000    
      4      5      1      2       109.4           109.5           0.000    
      5      4      1      3       109.4           109.5           0.000    
      6      5      1      3       109.4           109.5           0.000    
      7      4      1      4       109.4           109.5           0.000    
      8      5      1      4       109.4           109.5           0.000    
      9      4      1      5       109.4           109.5           0.000    
     10      5      1      5       109.4           109.5           0.000    
     11      4      1      6       109.4           109.5           0.000    
     12      5      1      6       109.4           109.5           0.000    
     13      4      1      7       109.4           109.5           0.000    
     14      5      1      7       109.4           109.5           0.000    
     15      4      1      8       109.4           109.5           0.000    
     16      5      1      8       109.4           109.5           0.000    
     17      4      1      9       109.4           109.5           0.000    
     18      5      1      9       109.4           109.5           0.000    
     19      4      1     10       109.4           109.5           0.000    
     20      5      1     10       109.4           109.5           0.000    
     21      4      1     11       109.4           109.5           0.000    
     22      5      1     11       109.4           109.5           0.000    
     23      4      1     12       109.4           109.5           0.000    
     24      5      1     12       109.4           109.5           0.000    
     25      4      1     13       109.4           109.5           0.000    
     26      5      1     13       109.4           109.5           0.000    
     27      4      1     14       109.4           109.5           0.000    
     28      5      1     14       109.4           109.5           0.000    
     29      4      1     15       109.4           109.5           0.000    
     30      5      1     15       109.4           109.5           0.000    
     31      4      1     16       109.4           109.5           0.000    
     32      5      1     16       109.4           109.5           0.000    
     33      4      1     17       109.4           109.5           0.000    
     34      5      1     17       109.4           109.5           0.000    
     35      4     17     17       109.2           109.3           0.000    
     36      5     17     17       109.2           109.3           0.000    
     37      4     18     17       109.2           109.3           0.000    
     38      5     18     17       109.2           109.3           0.000    
     39      4     18     16       109.2           109.3           0.000    
     40      5     18     16       109.2           109.3           0.000    
     41      4     19     16       109.2           109.3           0.000    
     42      5     19     16       109.2           109.3           0.000    
     43      4     19     15       109.2           109.3           0.000    
     44      5     19     15       109.2           109.3           0.000    
     45      4     20     15       109.2           109.3           0.000    
     46      5     20     15       109.2           109.3           0.000    
     47      4     20     14       109.2           109.3           0.000    
     48      5     20     14       109.2           109.3           0.000    
     49      4     20     13       109.2           109.3           0.000    
     50      5     20     13       109.2           109.3           0.000    
     51      4     20     12       109.2           109.3           0.000    
     52      5     20     12       109.2           109.3           0.000    
     53      4     20     11       109.2           109.3           0.000    
     54      5     20     11       109.2           109.3           0.000    
     55      4     21     11       109.2           109.3           0.000    
     56      5     21     11       109.2           109.3           0.000    
     57      4     21     10       109.2           109.3           0.000    
     58      5     21     10       109.2           109.3           0.000    
     59      4     21      9       109.2           109.3           0.000    
     60      5     21      9       109.2           109.3           0.000    
     61      4     21      8       109.2           109.3           0.000    
     62      5     21      8       109.2           109.3           0.000    
     63      4     21      7       109.2           109.3           0.000    
     64      5     21      7       109.2           109.3           0.000    
     65      4     21      6       109.2           109.3           0.000    
     66      5     21      6       109.2           109.3           0.000    
     67      4     21      5       109.2           109.3           0.000    
     68      5     21      5       109.2           109.3           0.000    
     69      4     22      5       109.2           109.3           0.000    
     70      5     22      5       109.2           109.3           0.000    
     71      4     22      4       109.2           109.3           0.000    
     72      5     22      4       109.2           109.3           0.000    
     73      4     22      3       109.2           109.3           0.000    
     74      5     22      3       109.2           109.3           0.000    
     75      4     22      2       109.2           109.3           0.000    
     76      5     22      2       109.2           109.3           0.000    
     77      4     22      1       109.2           109.3           0.000    
     78      5     22      1       109.2           109.3           0.000    


     78 TIME-VARIANT SPECIFIED-HEAD CELLS

 SOLVING FOR HEAD 


     3 CALLS TO PCG ROUTINE FOR TIME STEP   1 IN STRESS PERIOD   57
    51 TOTAL ITERATIONS

 MAXIMUM HEAD CHANGE FOR EACH ITERATION (1 INDICATES THE FIRST INNER ITERATION):

    HEAD CHANGE    HEAD CHANGE    HEAD CHANGE    HEAD CHANGE    HEAD CHANGE 
   LAYER,ROW,COL  LAYER,ROW,COL  LAYER,ROW,COL  LAYER,ROW,COL  LAYER,ROW,COL
 ---------------------------------------------------------------------------
  1  0.2035      0 -0.1580      0  0.1208      0  0.7992E-01  0  0.5115E-01
   (  5, 21,  2)  (  5, 20,  1)  (  5, 19,  1)  (  5, 20,  1)  (  5, 16,  1)
  0 -0.2958E-01  0  0.3189E-01  0 -0.2032E-01  0  0.9473E-02  0  0.5978E-02
   (  5, 15,  1)  (  5, 18,  1)  (  5, 17,  1)  (  5, 19,  1)  (  5, 14,  4)
  0 -0.4696E-02  0  0.3468E-02  0 -0.2868E-02  0  0.1281E-02  0  0.8429E-03
   (  5, 19,  1)  (  5, 16,  3)  (  5, 15,  3)  (  5, 15,  5)  (  5, 18,  2)
  0 -0.6408E-03  0  0.4655E-03  0 -0.2597E-03  0  0.1873E-03  0 -0.1093E-03
   (  5, 17,  2)  (  5, 16,  3)  (  5, 15,  3)  (  5, 17,  2)  (  5, 19,  2)
  0  0.1279E-03  0 -0.7543E-04  0 -0.3617E-04  0 -0.2859E-04  0  0.2426E-04
   (  5, 16,  1)  (  5, 15,  1)  (  5,  7,  1)  (  5, 12,  1)  (  5, 14,  1)
  0 -0.1615E-04  0 -0.7712E-05  0  0.7286E-05  0  0.5434E-05  0 -0.3439E-05
   (  5,  7,  1)  (  5, 19,  2)  (  5,  8,  1)  (  5,  6,  1)  (  5,  6,  1)
  1  0.4478E-03  0  0.4045E-03  0  0.5744E-03  0 -0.2506E-03  0  0.1657E-03
   (  5, 17,  3)  (  3,  9,  4)  (  5, 18,  1)  (  5, 21,  2)  (  5, 14,  1)
  0  0.9656E-04  0  0.5370E-04  0 -0.6556E-04  0  0.5957E-04  0 -0.3067E-04
   (  5, 20,  1)  (  5, 11,  2)  (  5, 20,  1)  (  5, 19,  1)  (  5, 15,  3)
  0  0.2407E-04  0 -0.1640E-04  0  0.1107E-04  0  0.5501E-05  0  0.4642E-05
   (  5, 14,  3)  (  5, 15,  5)  (  5, 13,  5)  (  5, 15,  4)  (  5, 12,  7)
  0  0.3537E-05  0  0.1824E-05  0  0.1455E-05  0  0.1133E-05  0 -0.6622E-06
   (  5, 17,  4)  (  5, 10,  4)  (  5, 18,  3)  (  5, 20,  1)  (  5, 16,  1)
  1  0.6407E-06
   (  5, 16,  1)

 MAXIMUM RESIDUAL FOR EACH ITERATION (1 INDICATES THE FIRST INNER ITERATION):

    RESIDUAL       RESIDUAL       RESIDUAL       RESIDUAL       RESIDUAL    
   LAYER,ROW,COL  LAYER,ROW,COL  LAYER,ROW,COL  LAYER,ROW,COL  LAYER,ROW,COL
 ---------------------------------------------------------------------------
  1 -0.3912E-02  0 -0.3083E-02  0 -0.2121E-02  0 -0.1325E-02  0 -0.7613E-03
   (  3, 17, 17)  (  3, 17, 17)  (  3, 17, 17)  (  3, 17, 17)  (  3, 20, 11)
  0 -0.4474E-03  0 -0.2748E-03  0 -0.1932E-03  0 -0.1544E-03  0 -0.1148E-03
   (  3, 20, 11)  (  3, 20, 11)  (  4, 16, 17)  (  4, 16, 17)  (  4, 16, 17)
  0 -0.8570E-04  0 -0.5961E-04  0 -0.4101E-04  0 -0.2740E-04  0 -0.1834E-04
   (  4, 16, 17)  (  4, 16, 17)  (  4, 16, 17)  (  4, 16, 17)  (  4, 16, 17)
  0 -0.1174E-04  0  0.7680E-05  0  0.4893E-05  0  0.2861E-05  0  0.1455E-05
   (  4, 16, 17)  (  3, 21,  6)  (  3, 21,  6)  (  3, 21,  6)  (  3, 21,  6)
  0  0.9649E-06  0 -0.5949E-06  0 -0.4542E-06  0 -0.3701E-06  0 -0.3037E-06
   (  3, 21,  6)  (  3, 17, 17)  (  3, 17, 17)  (  3, 17, 17)  (  3, 17, 17)
  0 -0.2332E-06  0 -0.1680E-06  0 -0.1167E-06  0 -0.7873E-07  0 -0.5380E-07
   (  3, 17, 17)  (  3, 17, 17)  (  3, 17, 17)  (  3, 17, 17)  (  3, 17, 17)
  1 -0.6509E-05  0 -0.3825E-05  0 -0.2218E-05  0  0.1783E-05  0 -0.1514E-05
   (  3, 21,  2)  (  3, 17,  3)  (  3, 17,  3)  (  4, 21,  2)  (  4, 21,  1)
  0 -0.1470E-05  0 -0.1154E-05  0  0.8176E-06  0  0.6171E-06  0  0.4609E-06
   (  4, 21,  1)  (  4, 21,  1)  (  4, 21,  2)  (  4, 21,  2)  (  4, 21,  2)
  0  0.3060E-06  0  0.1978E-06  0  0.1084E-06  0 -0.7778E-07  0 -0.5807E-07
   (  4, 21,  2)  (  4, 21,  2)  (  4, 21,  2)  (  4, 20,  2)  (  4, 20,  2)
  0 -0.3776E-07  0 -0.2186E-07  0  0.1717E-07  0  0.1351E-07  0  0.9872E-08
   (  4, 20,  2)  (  4, 21,  3)  (  4, 20,  3)  (  4, 20,  3)  (  4, 20,  3)
  1  0.8890E-08
   (  4, 20,  3)



 OUTPUT CONTROL FOR STRESS PERIOD   57   TIME STEP    1
    SAVE HEAD FOR ALL LAYERS
    SAVE DRAWDOWN FOR ALL LAYERS
    SAVE BUDGET
    PRINT BUDGET
 UBDSV1 SAVING "         STORAGE" ON UNIT   9 AT TIME STEP  1, STRESS PERIOD  57
 UBDSV2 SAVING "   CONSTANT HEAD" ON UNIT   9 AT TIME STEP  1, STRESS PERIOD  57
 UBDSV1 SAVING "FLOW RIGHT FACE " ON UNIT   9 AT TIME STEP  1, STRESS PERIOD  57
 UBDSV1 SAVING "FLOW FRONT FACE " ON UNIT   9 AT TIME STEP  1, STRESS PERIOD  57
 UBDSV1 SAVING "FLOW LOWER FACE " ON UNIT   9 AT TIME STEP  1, STRESS PERIOD  57
 UBDSV3 SAVING "        RECHARGE" ON UNIT   9 AT TIME STEP  1, STRESS PERIOD  57

 HEAD WILL BE SAVED ON UNIT   37 AT END OF TIME STEP    1, STRESS PERIOD   57

 DRAWDOWN WILL BE SAVED ON UNIT   38 AT END OF TIME STEP    1, STRESS PERIOD   57
1
  VOLUMETRIC BUDGET FOR ENTIRE MODEL AT END OF TIME STEP    1, STRESS PERIOD  57
  ------------------------------------------------------------------------------

     CUMULATIVE VOLUMES      L**3       RATES FOR THIS TIME STEP      L**3/T
     ------------------                 ------------------------

           IN:                                      IN:
           ---                                      ---
             STORAGE =       10048.9053               STORAGE =           0.0000
       CONSTANT HEAD =       15525.9062         CONSTANT HEAD =       2.0941E-03
            RECHARGE =         633.8302              RECHARGE =       9.7813E-05

            TOTAL IN =       26208.6426              TOTAL IN =       2.1919E-03

          OUT:                                     OUT:
          ----                                     ----
             STORAGE =        5031.5303               STORAGE =       1.7344E-03
       CONSTANT HEAD =       21177.7559         CONSTANT HEAD =       4.5757E-04
            RECHARGE =           0.0000              RECHARGE =           0.0000

           TOTAL OUT =       26209.2852             TOTAL OUT =       2.1920E-03

            IN - OUT =          -0.6426              IN - OUT =      -8.1491E-08

 PERCENT DISCREPANCY =          -0.00     PERCENT DISCREPANCY =          -0.00






         TIME SUMMARY AT END OF TIME STEP    1 IN STRESS PERIOD   57
                    SECONDS     MINUTES      HOURS       DAYS        YEARS
                    -----------------------------------------------------------
   TIME STEP LENGTH  86400.      1440.0      24.000      1.0000     2.73785E-03
 STRESS PERIOD TIME  86400.      1440.0      24.000      1.0000     2.73785E-03
         TOTAL TIME 6.48000E+06 1.08000E+05  1800.0      75.000     0.20534    
1
1
                            STRESS PERIOD NO.   58, LENGTH =   86400.00    
                            -----------------------------------------------

                              NUMBER OF TIME STEPS =     1

                               MULTIPLIER FOR DELT =     1.000

                            INITIAL TIME STEP SIZE =   86400.00    

 REUSING RECH FROM LAST STRESS PERIOD

 CHD NO.   LAYER   ROW   COL    START HEAD        END HEAD         IFACE           
 ----------------------------------------------------------------------------------
      1      4      1      1       109.5           109.4           0.000    
      2      5      1      1       109.5           109.4           0.000    
      3      4      1      2       109.5           109.4           0.000    
      4      5      1      2       109.5           109.4           0.000    
      5      4      1      3       109.5           109.4           0.000    
      6      5      1      3       109.5           109.4           0.000    
      7      4      1      4       109.5           109.4           0.000    
      8      5      1      4       109.5           109.4           0.000    
      9      4      1      5       109.5           109.4           0.000    
     10      5      1      5       109.5           109.4           0.000    
     11      4      1      6       109.5           109.4           0.000    
     12      5      1      6       109.5           109.4           0.000    
     13      4      1      7       109.5           109.4           0.000    
     14      5      1      7       109.5           109.4           0.000    
     15      4      1      8       109.5           109.4           0.000    
     16      5      1      8       109.5           109.4           0.000    
     17      4      1      9       109.5           109.4           0.000    
     18      5      1      9       109.5           109.4           0.000    
     19      4      1     10       109.5           109.4           0.000    
     20      5      1     10       109.5           109.4           0.000    
     21      4      1     11       109.5           109.4           0.000    
     22      5      1     11       109.5           109.4           0.000    
     23      4      1     12       109.5           109.4           0.000    
     24      5      1     12       109.5           109.4           0.000    
     25      4      1     13       109.5           109.4           0.000    
     26      5      1     13       109.5           109.4           0.000    
     27      4      1     14       109.5           109.4           0.000    
     28      5      1     14       109.5           109.4           0.000    
     29      4      1     15       109.5           109.4           0.000    
     30      5      1     15       109.5           109.4           0.000    
     31      4      1     16       109.5           109.4           0.000    
     32      5      1     16       109.5           109.4           0.000    
     33      4      1     17       109.5           109.4           0.000    
     34      5      1     17       109.5           109.4           0.000    
     35      4     17     17       109.3           109.3           0.000    
     36      5     17     17       109.3           109.3           0.000    
     37      4     18     17       109.3           109.3           0.000    
     38      5     18     17       109.3           109.3           0.000    
     39      4     18     16       109.3           109.3           0.000    
     40      5     18     16       109.3           109.3           0.000    
     41      4     19     16       109.3           109.3           0.000    
     42      5     19     16       109.3           109.3           0.000    
     43      4     19     15       109.3           109.3           0.000    
     44      5     19     15       109.3           109.3           0.000    
     45      4     20     15       109.3           109.3           0.000    
     46      5     20     15       109.3           109.3           0.000    
     47      4     20     14       109.3           109.3           0.000    
     48      5     20     14       109.3           109.3           0.000    
     49      4     20     13       109.3           109.3           0.000    
     50      5     20     13       109.3           109.3           0.000    
     51      4     20     12       109.3           109.3           0.000    
     52      5     20     12       109.3           109.3           0.000    
     53      4     20     11       109.3           109.3           0.000    
     54      5     20     11       109.3           109.3           0.000    
     55      4     21     11       109.3           109.3           0.000    
     56      5     21     11       109.3           109.3           0.000    
     57      4     21     10       109.3           109.3           0.000    
     58      5     21     10       109.3           109.3           0.000    
     59      4     21      9       109.3           109.3           0.000    
     60      5     21      9       109.3           109.3           0.000    
     61      4     21      8       109.3           109.3           0.000    
     62      5     21      8       109.3           109.3           0.000    
     63      4     21      7       109.3           109.3           0.000    
     64      5     21      7       109.3           109.3           0.000    
     65      4     21      6       109.3           109.3           0.000    
     66      5     21      6       109.3           109.3           0.000    
     67      4     21      5       109.3           109.3           0.000    
     68      5     21      5       109.3           109.3           0.000    
     69      4     22      5       109.3           109.3           0.000    
     70      5     22      5       109.3           109.3           0.000    
     71      4     22      4       109.3           109.3           0.000    
     72      5     22      4       109.3           109.3           0.000    
     73      4     22      3       109.3           109.3           0.000    
     74      5     22      3       109.3           109.3           0.000    
     75      4     22      2       109.3           109.3           0.000    
     76      5     22      2       109.3           109.3           0.000    
     77      4     22      1       109.3           109.3           0.000    
     78      5     22      1       109.3           109.3           0.000    


     78 TIME-VARIANT SPECIFIED-HEAD CELLS

 SOLVING FOR HEAD 


     3 CALLS TO PCG ROUTINE FOR TIME STEP   1 IN STRESS PERIOD   58
    43 TOTAL ITERATIONS

 MAXIMUM HEAD CHANGE FOR EACH ITERATION (1 INDICATES THE FIRST INNER ITERATION):

    HEAD CHANGE    HEAD CHANGE    HEAD CHANGE    HEAD CHANGE    HEAD CHANGE 
   LAYER,ROW,COL  LAYER,ROW,COL  LAYER,ROW,COL  LAYER,ROW,COL  LAYER,ROW,COL
 ---------------------------------------------------------------------------
  1 -0.7044E-01  0  0.5067E-01  0 -0.3385E-01  0 -0.3217E-01  0  0.2847E-01
   (  5, 21,  2)  (  5, 20,  1)  (  5, 19,  1)  (  5, 20,  1)  (  5, 18,  1)
  0 -0.2138E-01  0  0.9681E-02  0 -0.5380E-02  0  0.4010E-02  0 -0.1925E-02
   (  5, 17,  1)  (  5, 16,  1)  (  5, 19,  1)  (  5, 17,  1)  (  5, 14,  4)
  0  0.1921E-02  0 -0.1379E-02  0  0.1079E-02  0 -0.5718E-03  0  0.3754E-03
   (  5, 19,  1)  (  5, 16,  3)  (  5, 15,  3)  (  5, 14,  4)  (  5, 13,  4)
  0  0.3089E-03  0 -0.2075E-03  0  0.1238E-03  0  0.7295E-04  0 -0.7388E-04
   (  5, 17,  3)  (  5, 16,  3)  (  5, 15,  3)  (  5, 13,  5)  (  5, 15,  1)
  0  0.5632E-04  0 -0.3558E-04  0 -0.2402E-04  0  0.1150E-04  0  0.9490E-05
   (  5, 17,  1)  (  5, 18,  2)  (  5,  6,  1)  (  5,  6,  1)  (  5, 19,  1)
  0 -0.6707E-05  0  0.4776E-05  0 -0.2819E-05  0  0.2366E-05  0  0.1266E-05
   (  5, 18,  1)  (  5,  6,  1)  (  5,  7,  1)  (  5,  7,  1)  (  5,  6,  2)
  1  0.5660E-04  0 -0.3710E-04  0  0.4485E-04  0  0.2445E-04  0  0.1263E-04
   (  5, 20,  2)  (  5, 19,  1)  (  5, 17,  1)  (  5, 19,  1)  (  5, 19,  3)
  0  0.7352E-05  0 -0.6768E-05  0 -0.4278E-05  0  0.2749E-05  0 -0.1828E-05
   (  5, 19,  3)  (  5, 18,  3)  (  5, 19,  3)  (  5, 18,  3)  (  5, 17,  4)
  0  0.1502E-05  0 -0.7848E-06  1 -0.5536E-06
   (  5, 16,  4)  (  5, 15,  5)  (  5, 12,  6)

 MAXIMUM RESIDUAL FOR EACH ITERATION (1 INDICATES THE FIRST INNER ITERATION):

    RESIDUAL       RESIDUAL       RESIDUAL       RESIDUAL       RESIDUAL    
   LAYER,ROW,COL  LAYER,ROW,COL  LAYER,ROW,COL  LAYER,ROW,COL  LAYER,ROW,COL
 ---------------------------------------------------------------------------
  1  0.1503E-02  0  0.1185E-02  0  0.8218E-03  0  0.5246E-03  0  0.3235E-03
   (  3, 17, 17)  (  3, 17, 17)  (  3, 17, 17)  (  3, 17, 17)  (  3, 17, 17)
  0  0.2081E-03  0  0.1252E-03  0  0.7829E-04  0  0.6291E-04  0  0.4777E-04
   (  3, 20, 11)  (  3, 20, 11)  (  3, 20, 11)  (  4, 16, 17)  (  4, 16, 17)
  0  0.3555E-04  0  0.2536E-04  0  0.1789E-04  0  0.1211E-04  0  0.8046E-05
   (  4, 16, 17)  (  4, 16, 17)  (  4, 16, 17)  (  4, 16, 17)  (  4, 16, 17)
  0  0.5348E-05  0  0.3564E-05  0  0.2251E-05  0  0.1295E-05  0  0.7874E-06
   (  4, 16, 17)  (  4, 16, 17)  (  4, 16, 17)  (  4, 16, 17)  (  4, 16, 17)
  0  0.5341E-06  0  0.2876E-06  0  0.2133E-06  0  0.1633E-06  0  0.1382E-06
   (  4, 16, 17)  (  3, 17, 17)  (  3, 17, 17)  (  3, 17, 17)  (  3, 17, 17)
  0  0.1096E-06  0  0.8177E-07  0  0.5845E-07  0  0.4093E-07  0  0.2806E-07
   (  3, 17, 17)  (  3, 17, 17)  (  3, 17, 17)  (  3, 17, 17)  (  3, 17, 17)
  1 -0.1085E-05  0 -0.7420E-06  0  0.3793E-06  0  0.3070E-06  0  0.2338E-06
   (  3, 20,  2)  (  3, 20,  2)  (  4, 20,  2)  (  4, 20,  2)  (  4, 20,  2)
  0  0.1794E-06  0  0.1243E-06  0  0.6824E-07  0 -0.4465E-07  0 -0.4196E-07
   (  4, 20,  2)  (  4, 20,  2)  (  4, 20,  2)  (  4, 19,  2)  (  4, 19,  2)
  0 -0.3254E-07  0 -0.2069E-07  1 -0.1874E-07
   (  4, 19,  2)  (  4, 19,  2)  (  4, 19,  2)



 OUTPUT CONTROL FOR STRESS PERIOD   58   TIME STEP    1
    SAVE HEAD FOR ALL LAYERS
    SAVE DRAWDOWN FOR ALL LAYERS
    SAVE BUDGET
    PRINT BUDGET
 UBDSV1 SAVING "         STORAGE" ON UNIT   9 AT TIME STEP  1, STRESS PERIOD  58
 UBDSV2 SAVING "   CONSTANT HEAD" ON UNIT   9 AT TIME STEP  1, STRESS PERIOD  58
 UBDSV1 SAVING "FLOW RIGHT FACE " ON UNIT   9 AT TIME STEP  1, STRESS PERIOD  58
 UBDSV1 SAVING "FLOW FRONT FACE " ON UNIT   9 AT TIME STEP  1, STRESS PERIOD  58
 UBDSV1 SAVING "FLOW LOWER FACE " ON UNIT   9 AT TIME STEP  1, STRESS PERIOD  58
 UBDSV3 SAVING "        RECHARGE" ON UNIT   9 AT TIME STEP  1, STRESS PERIOD  58

 HEAD WILL BE SAVED ON UNIT   37 AT END OF TIME STEP    1, STRESS PERIOD   58

 DRAWDOWN WILL BE SAVED ON UNIT   38 AT END OF TIME STEP    1, STRESS PERIOD   58
1
  VOLUMETRIC BUDGET FOR ENTIRE MODEL AT END OF TIME STEP    1, STRESS PERIOD  58
  ------------------------------------------------------------------------------

     CUMULATIVE VOLUMES      L**3       RATES FOR THIS TIME STEP      L**3/T
     ------------------                 ------------------------

           IN:                                      IN:
           ---                                      ---
             STORAGE =       10063.4668               STORAGE =       1.6854E-04
       CONSTANT HEAD =       15666.9189         CONSTANT HEAD =       1.6321E-03
            RECHARGE =         642.2812              RECHARGE =       9.7813E-05

            TOTAL IN =       26372.6680              TOTAL IN =       1.8984E-03

          OUT:                                     OUT:
          ----                                     ----
             STORAGE =        5034.7251               STORAGE =       3.6979E-05
       CONSTANT HEAD =       21338.5938         CONSTANT HEAD =       1.8615E-03
            RECHARGE =           0.0000              RECHARGE =           0.0000

           TOTAL OUT =       26373.3184             TOTAL OUT =       1.8985E-03

            IN - OUT =          -0.6504              IN - OUT =      -8.1724E-08

 PERCENT DISCREPANCY =          -0.00     PERCENT DISCREPANCY =          -0.00






         TIME SUMMARY AT END OF TIME STEP    1 IN STRESS PERIOD   58
                    SECONDS     MINUTES      HOURS       DAYS        YEARS
                    -----------------------------------------------------------
   TIME STEP LENGTH  86400.      1440.0      24.000      1.0000     2.73785E-03
 STRESS PERIOD TIME  86400.      1440.0      24.000      1.0000     2.73785E-03
         TOTAL TIME 6.56640E+06 1.09440E+05  1824.0      76.000     0.20808    
1
1
                            STRESS PERIOD NO.   59, LENGTH =   86400.00    
                            -----------------------------------------------

                              NUMBER OF TIME STEPS =     1

                               MULTIPLIER FOR DELT =     1.000

                            INITIAL TIME STEP SIZE =   86400.00    

 REUSING RECH FROM LAST STRESS PERIOD

 CHD NO.   LAYER   ROW   COL    START HEAD        END HEAD         IFACE           
 ----------------------------------------------------------------------------------
      1      4      1      1       109.4           109.5           0.000    
      2      5      1      1       109.4           109.5           0.000    
      3      4      1      2       109.4           109.5           0.000    
      4      5      1      2       109.4           109.5           0.000    
      5      4      1      3       109.4           109.5           0.000    
      6      5      1      3       109.4           109.5           0.000    
      7      4      1      4       109.4           109.5           0.000    
      8      5      1      4       109.4           109.5           0.000    
      9      4      1      5       109.4           109.5           0.000    
     10      5      1      5       109.4           109.5           0.000    
     11      4      1      6       109.4           109.5           0.000    
     12      5      1      6       109.4           109.5           0.000    
     13      4      1      7       109.4           109.5           0.000    
     14      5      1      7       109.4           109.5           0.000    
     15      4      1      8       109.4           109.5           0.000    
     16      5      1      8       109.4           109.5           0.000    
     17      4      1      9       109.4           109.5           0.000    
     18      5      1      9       109.4           109.5           0.000    
     19      4      1     10       109.4           109.5           0.000    
     20      5      1     10       109.4           109.5           0.000    
     21      4      1     11       109.4           109.5           0.000    
     22      5      1     11       109.4           109.5           0.000    
     23      4      1     12       109.4           109.5           0.000    
     24      5      1     12       109.4           109.5           0.000    
     25      4      1     13       109.4           109.5           0.000    
     26      5      1     13       109.4           109.5           0.000    
     27      4      1     14       109.4           109.5           0.000    
     28      5      1     14       109.4           109.5           0.000    
     29      4      1     15       109.4           109.5           0.000    
     30      5      1     15       109.4           109.5           0.000    
     31      4      1     16       109.4           109.5           0.000    
     32      5      1     16       109.4           109.5           0.000    
     33      4      1     17       109.4           109.5           0.000    
     34      5      1     17       109.4           109.5           0.000    
     35      4     17     17       109.3           109.3           0.000    
     36      5     17     17       109.3           109.3           0.000    
     37      4     18     17       109.3           109.3           0.000    
     38      5     18     17       109.3           109.3           0.000    
     39      4     18     16       109.3           109.3           0.000    
     40      5     18     16       109.3           109.3           0.000    
     41      4     19     16       109.3           109.3           0.000    
     42      5     19     16       109.3           109.3           0.000    
     43      4     19     15       109.3           109.3           0.000    
     44      5     19     15       109.3           109.3           0.000    
     45      4     20     15       109.3           109.3           0.000    
     46      5     20     15       109.3           109.3           0.000    
     47      4     20     14       109.3           109.3           0.000    
     48      5     20     14       109.3           109.3           0.000    
     49      4     20     13       109.3           109.3           0.000    
     50      5     20     13       109.3           109.3           0.000    
     51      4     20     12       109.3           109.3           0.000    
     52      5     20     12       109.3           109.3           0.000    
     53      4     20     11       109.3           109.3           0.000    
     54      5     20     11       109.3           109.3           0.000    
     55      4     21     11       109.3           109.3           0.000    
     56      5     21     11       109.3           109.3           0.000    
     57      4     21     10       109.3           109.3           0.000    
     58      5     21     10       109.3           109.3           0.000    
     59      4     21      9       109.3           109.3           0.000    
     60      5     21      9       109.3           109.3           0.000    
     61      4     21      8       109.3           109.3           0.000    
     62      5     21      8       109.3           109.3           0.000    
     63      4     21      7       109.3           109.3           0.000    
     64      5     21      7       109.3           109.3           0.000    
     65      4     21      6       109.3           109.3           0.000    
     66      5     21      6       109.3           109.3           0.000    
     67      4     21      5       109.3           109.3           0.000    
     68      5     21      5       109.3           109.3           0.000    
     69      4     22      5       109.3           109.3           0.000    
     70      5     22      5       109.3           109.3           0.000    
     71      4     22      4       109.3           109.3           0.000    
     72      5     22      4       109.3           109.3           0.000    
     73      4     22      3       109.3           109.3           0.000    
     74      5     22      3       109.3           109.3           0.000    
     75      4     22      2       109.3           109.3           0.000    
     76      5     22      2       109.3           109.3           0.000    
     77      4     22      1       109.3           109.3           0.000    
     78      5     22      1       109.3           109.3           0.000    


     78 TIME-VARIANT SPECIFIED-HEAD CELLS

 SOLVING FOR HEAD 


     3 CALLS TO PCG ROUTINE FOR TIME STEP   1 IN STRESS PERIOD   59
    44 TOTAL ITERATIONS

 MAXIMUM HEAD CHANGE FOR EACH ITERATION (1 INDICATES THE FIRST INNER ITERATION):

    HEAD CHANGE    HEAD CHANGE    HEAD CHANGE    HEAD CHANGE    HEAD CHANGE 
   LAYER,ROW,COL  LAYER,ROW,COL  LAYER,ROW,COL  LAYER,ROW,COL  LAYER,ROW,COL
 ---------------------------------------------------------------------------
  1  0.3211E-01  0 -0.2546E-01  0  0.1713E-01  0  0.1056E-01  0 -0.8073E-02
   (  5, 21,  2)  (  5, 20,  1)  (  5, 19,  1)  (  5, 20,  1)  (  5, 19,  1)
  0  0.6375E-02  0 -0.3645E-02  0  0.2532E-02  0  0.1404E-02  0  0.6914E-03
   (  5, 17,  1)  (  5, 16,  1)  (  5, 19,  1)  (  5, 11,  3)  (  5, 14,  4)
  0 -0.6864E-03  0  0.5841E-03  0 -0.4089E-03  0  0.2672E-03  0 -0.1404E-03
   (  5, 19,  1)  (  5, 16,  3)  (  5, 15,  3)  (  5, 14,  4)  (  5, 14,  5)
  0 -0.8948E-04  0  0.6557E-04  0 -0.3625E-04  0  0.2744E-04  0  0.1577E-04
   (  5, 17,  3)  (  5, 16,  3)  (  5, 18,  2)  (  5, 17,  2)  (  5,  6,  1)
  0  0.1341E-04  0 -0.1116E-04  0  0.9461E-05  0 -0.4281E-05  0  0.3427E-05
   (  5, 18,  2)  (  5, 15,  1)  (  5, 17,  1)  (  5,  6,  1)  (  5, 14,  1)
  0  0.2784E-05  0 -0.1875E-05  0  0.1342E-05  0 -0.7852E-06  1  0.6587E-04
   (  5, 18,  1)  (  5, 19,  2)  (  5,  7,  1)  (  5,  7,  1)  (  5, 11,  4)
  0  0.1042E-03  0  0.4958E-04  0  0.4560E-04  0 -0.2489E-04  0  0.2318E-04
   (  3, 10,  3)  (  3, 10,  3)  (  5, 16,  1)  (  5, 18,  1)  (  5, 19,  1)
  0 -0.1741E-04  0  0.8680E-05  0  0.4765E-05  0  0.4099E-05  0 -0.2219E-05
   (  5, 19,  1)  (  5, 20,  1)  (  5, 12,  1)  (  5, 17,  1)  (  5, 18,  4)
  0 -0.1844E-05  0  0.1132E-05  0 -0.8586E-06  1  0.7187E-06
   (  5, 14,  5)  (  5, 14,  4)  (  5, 13,  3)  (  5, 17,  3)

 MAXIMUM RESIDUAL FOR EACH ITERATION (1 INDICATES THE FIRST INNER ITERATION):

    RESIDUAL       RESIDUAL       RESIDUAL       RESIDUAL       RESIDUAL    
   LAYER,ROW,COL  LAYER,ROW,COL  LAYER,ROW,COL  LAYER,ROW,COL  LAYER,ROW,COL
 ---------------------------------------------------------------------------
  1 -0.3709E-03  0 -0.2596E-03  0 -0.1596E-03  0 -0.9439E-04  0 -0.5413E-04
   (  3, 17, 17)  (  3, 17, 17)  (  3, 17, 17)  (  3, 17, 17)  (  3, 17, 17)
  0 -0.3302E-04  0 -0.2436E-04  0 -0.2205E-04  0 -0.1696E-04  0 -0.1162E-04
   (  3, 17, 17)  (  4, 16, 17)  (  4, 16, 17)  (  4, 16, 17)  (  4, 16, 17)
  0 -0.7573E-05  0 -0.4663E-05  0  0.3047E-05  0  0.2359E-05  0  0.1779E-05
   (  4, 16, 17)  (  4, 16, 17)  (  3, 21,  6)  (  3, 21,  6)  (  3, 21,  6)
  0  0.1321E-05  0  0.9599E-06  0  0.6344E-06  0  0.3626E-06  0  0.1790E-06
   (  3, 21,  6)  (  3, 21,  6)  (  3, 21,  6)  (  3, 21,  6)  (  3, 21,  6)
  0 -0.9232E-07  0 -0.7367E-07  0 -0.5537E-07  0 -0.3553E-07  0 -0.2309E-07
   (  5, 15, 17)  (  5, 15, 17)  (  5, 15, 17)  (  5, 15, 17)  (  5, 16, 17)
  0 -0.1875E-07  0 -0.1269E-07  0 -0.7841E-08  0 -0.5868E-08  1 -0.9600E-06
   (  5, 16, 17)  (  5, 16, 17)  (  5, 16, 17)  (  3, 21,  6)  (  3, 10,  4)
  0 -0.6109E-06  0 -0.4176E-06  0 -0.2446E-06  0  0.2040E-06  0  0.1357E-06
   (  3, 10,  4)  (  3, 10,  4)  (  3, 10,  4)  (  4, 10,  4)  (  4, 10,  4)
  0  0.9512E-07  0  0.8112E-07  0  0.5535E-07  0  0.3832E-07  0  0.2666E-07
   (  4, 10,  4)  (  4, 10,  4)  (  4, 10,  4)  (  4, 10,  4)  (  4, 10,  4)
  0 -0.1915E-07  0 -0.1210E-07  0 -0.1069E-07  1 -0.7883E-08
   (  4,  9,  4)  (  4,  9,  3)  (  4, 10,  2)  (  4,  9,  3)



 OUTPUT CONTROL FOR STRESS PERIOD   59   TIME STEP    1
    SAVE HEAD FOR ALL LAYERS
    SAVE DRAWDOWN FOR ALL LAYERS
    SAVE BUDGET
    PRINT BUDGET
 UBDSV1 SAVING "         STORAGE" ON UNIT   9 AT TIME STEP  1, STRESS PERIOD  59
 UBDSV2 SAVING "   CONSTANT HEAD" ON UNIT   9 AT TIME STEP  1, STRESS PERIOD  59
 UBDSV1 SAVING "FLOW RIGHT FACE " ON UNIT   9 AT TIME STEP  1, STRESS PERIOD  59
 UBDSV1 SAVING "FLOW FRONT FACE " ON UNIT   9 AT TIME STEP  1, STRESS PERIOD  59
 UBDSV1 SAVING "FLOW LOWER FACE " ON UNIT   9 AT TIME STEP  1, STRESS PERIOD  59
 UBDSV3 SAVING "        RECHARGE" ON UNIT   9 AT TIME STEP  1, STRESS PERIOD  59

 HEAD WILL BE SAVED ON UNIT   37 AT END OF TIME STEP    1, STRESS PERIOD   59

 DRAWDOWN WILL BE SAVED ON UNIT   38 AT END OF TIME STEP    1, STRESS PERIOD   59
1
  VOLUMETRIC BUDGET FOR ENTIRE MODEL AT END OF TIME STEP    1, STRESS PERIOD  59
  ------------------------------------------------------------------------------

     CUMULATIVE VOLUMES      L**3       RATES FOR THIS TIME STEP      L**3/T
     ------------------                 ------------------------

           IN:                                      IN:
           ---                                      ---
             STORAGE =       10063.4668               STORAGE =           0.0000
       CONSTANT HEAD =       15835.0312         CONSTANT HEAD =       1.9457E-03
            RECHARGE =         650.7323              RECHARGE =       9.7813E-05

            TOTAL IN =       26549.2305              TOTAL IN =       2.0436E-03

          OUT:                                     OUT:
          ----                                     ----
             STORAGE =        5067.3433               STORAGE =       3.7753E-04
       CONSTANT HEAD =       21482.5449         CONSTANT HEAD =       1.6661E-03
            RECHARGE =           0.0000              RECHARGE =           0.0000

           TOTAL OUT =       26549.8887             TOTAL OUT =       2.0436E-03

            IN - OUT =          -0.6582              IN - OUT =      -7.6368E-08

 PERCENT DISCREPANCY =          -0.00     PERCENT DISCREPANCY =          -0.00






         TIME SUMMARY AT END OF TIME STEP    1 IN STRESS PERIOD   59
                    SECONDS     MINUTES      HOURS       DAYS        YEARS
                    -----------------------------------------------------------
   TIME STEP LENGTH  86400.      1440.0      24.000      1.0000     2.73785E-03
 STRESS PERIOD TIME  86400.      1440.0      24.000      1.0000     2.73785E-03
         TOTAL TIME 6.65280E+06 1.10880E+05  1848.0      77.000     0.21081    
1
1
                            STRESS PERIOD NO.   60, LENGTH =   86400.00    
                            -----------------------------------------------

                              NUMBER OF TIME STEPS =     1

                               MULTIPLIER FOR DELT =     1.000

                            INITIAL TIME STEP SIZE =   86400.00    

 REUSING RECH FROM LAST STRESS PERIOD

 CHD NO.   LAYER   ROW   COL    START HEAD        END HEAD         IFACE           
 ----------------------------------------------------------------------------------
      1      4      1      1       109.5           109.5           0.000    
      2      5      1      1       109.5           109.5           0.000    
      3      4      1      2       109.5           109.5           0.000    
      4      5      1      2       109.5           109.5           0.000    
      5      4      1      3       109.5           109.5           0.000    
      6      5      1      3       109.5           109.5           0.000    
      7      4      1      4       109.5           109.5           0.000    
      8      5      1      4       109.5           109.5           0.000    
      9      4      1      5       109.5           109.5           0.000    
     10      5      1      5       109.5           109.5           0.000    
     11      4      1      6       109.5           109.5           0.000    
     12      5      1      6       109.5           109.5           0.000    
     13      4      1      7       109.5           109.5           0.000    
     14      5      1      7       109.5           109.5           0.000    
     15      4      1      8       109.5           109.5           0.000    
     16      5      1      8       109.5           109.5           0.000    
     17      4      1      9       109.5           109.5           0.000    
     18      5      1      9       109.5           109.5           0.000    
     19      4      1     10       109.5           109.5           0.000    
     20      5      1     10       109.5           109.5           0.000    
     21      4      1     11       109.5           109.5           0.000    
     22      5      1     11       109.5           109.5           0.000    
     23      4      1     12       109.5           109.5           0.000    
     24      5      1     12       109.5           109.5           0.000    
     25      4      1     13       109.5           109.5           0.000    
     26      5      1     13       109.5           109.5           0.000    
     27      4      1     14       109.5           109.5           0.000    
     28      5      1     14       109.5           109.5           0.000    
     29      4      1     15       109.5           109.5           0.000    
     30      5      1     15       109.5           109.5           0.000    
     31      4      1     16       109.5           109.5           0.000    
     32      5      1     16       109.5           109.5           0.000    
     33      4      1     17       109.5           109.5           0.000    
     34      5      1     17       109.5           109.5           0.000    
     35      4     17     17       109.3           109.3           0.000    
     36      5     17     17       109.3           109.3           0.000    
     37      4     18     17       109.3           109.3           0.000    
     38      5     18     17       109.3           109.3           0.000    
     39      4     18     16       109.3           109.3           0.000    
     40      5     18     16       109.3           109.3           0.000    
     41      4     19     16       109.3           109.3           0.000    
     42      5     19     16       109.3           109.3           0.000    
     43      4     19     15       109.3           109.3           0.000    
     44      5     19     15       109.3           109.3           0.000    
     45      4     20     15       109.3           109.3           0.000    
     46      5     20     15       109.3           109.3           0.000    
     47      4     20     14       109.3           109.3           0.000    
     48      5     20     14       109.3           109.3           0.000    
     49      4     20     13       109.3           109.3           0.000    
     50      5     20     13       109.3           109.3           0.000    
     51      4     20     12       109.3           109.3           0.000    
     52      5     20     12       109.3           109.3           0.000    
     53      4     20     11       109.3           109.3           0.000    
     54      5     20     11       109.3           109.3           0.000    
     55      4     21     11       109.3           109.3           0.000    
     56      5     21     11       109.3           109.3           0.000    
     57      4     21     10       109.3           109.3           0.000    
     58      5     21     10       109.3           109.3           0.000    
     59      4     21      9       109.3           109.3           0.000    
     60      5     21      9       109.3           109.3           0.000    
     61      4     21      8       109.3           109.3           0.000    
     62      5     21      8       109.3           109.3           0.000    
     63      4     21      7       109.3           109.3           0.000    
     64      5     21      7       109.3           109.3           0.000    
     65      4     21      6       109.3           109.3           0.000    
     66      5     21      6       109.3           109.3           0.000    
     67      4     21      5       109.3           109.3           0.000    
     68      5     21      5       109.3           109.3           0.000    
     69      4     22      5       109.3           109.3           0.000    
     70      5     22      5       109.3           109.3           0.000    
     71      4     22      4       109.3           109.3           0.000    
     72      5     22      4       109.3           109.3           0.000    
     73      4     22      3       109.3           109.3           0.000    
     74      5     22      3       109.3           109.3           0.000    
     75      4     22      2       109.3           109.3           0.000    
     76      5     22      2       109.3           109.3           0.000    
     77      4     22      1       109.3           109.3           0.000    
     78      5     22      1       109.3           109.3           0.000    


     78 TIME-VARIANT SPECIFIED-HEAD CELLS

 SOLVING FOR HEAD 


     3 CALLS TO PCG ROUTINE FOR TIME STEP   1 IN STRESS PERIOD   60
    49 TOTAL ITERATIONS

 MAXIMUM HEAD CHANGE FOR EACH ITERATION (1 INDICATES THE FIRST INNER ITERATION):

    HEAD CHANGE    HEAD CHANGE    HEAD CHANGE    HEAD CHANGE    HEAD CHANGE 
   LAYER,ROW,COL  LAYER,ROW,COL  LAYER,ROW,COL  LAYER,ROW,COL  LAYER,ROW,COL
 ---------------------------------------------------------------------------
  1  0.3529E-01  0 -0.2799E-01  0  0.2163E-01  0 -0.1537E-01  0  0.1007E-01
   (  5, 21,  2)  (  5, 20,  1)  (  5, 18,  1)  (  5, 17,  1)  (  5, 16,  1)
  0 -0.5557E-02  0  0.5310E-02  0 -0.2202E-02  0  0.1609E-02  0 -0.1047E-02
   (  5, 14,  1)  (  5, 18,  1)  (  5, 17,  1)  (  5, 12,  4)  (  5, 18,  1)
  0  0.7842E-03  0  0.6365E-03  0 -0.4657E-03  0  0.2741E-03  0 -0.1529E-03
   (  5, 11,  5)  (  5, 16,  3)  (  5, 17,  5)  (  5, 17,  3)  (  5, 16,  3)
  0 -0.1180E-03  0  0.9468E-04  0 -0.4438E-04  0  0.3096E-04  0  0.2715E-04
   (  5, 15,  5)  (  5, 14,  5)  (  5, 14,  3)  (  5, 14,  4)  (  5,  6,  1)
  0  0.2781E-04  0 -0.1296E-04  0  0.1508E-04  0 -0.5615E-05  0  0.4374E-05
   (  5, 15,  1)  (  5,  6,  1)  (  5,  6,  1)  (  5,  6,  1)  (  5, 14,  1)
  0  0.3623E-05  0 -0.2508E-05  0  0.1868E-05  0  0.1130E-05  0 -0.6253E-06
   (  5, 18,  1)  (  5,  7,  1)  (  5,  7,  1)  (  5,  6,  2)  (  5, 19,  3)
  1  0.1184E-03  0  0.1303E-03  0  0.1357E-03  0  0.8954E-04  0  0.6936E-04
   (  5, 12,  3)  (  3, 11,  3)  (  5, 13,  1)  (  3, 11,  2)  (  5, 16,  1)
  0 -0.5275E-04  0 -0.2881E-04  0 -0.2282E-04  0 -0.1486E-04  0 -0.1122E-04
   (  5, 17,  1)  (  5, 14,  4)  (  5, 19,  1)  (  5, 15,  1)  (  5, 14,  3)
  0  0.6391E-05  0 -0.4476E-05  0  0.2479E-05  0  0.1977E-05  0 -0.1304E-05
   (  5, 15,  5)  (  5, 20,  1)  (  5, 20,  1)  (  5, 10,  1)  (  5, 16,  1)
  0  0.1477E-05  0 -0.1093E-05  0  0.8934E-06  1 -0.6691E-06
   (  5, 12,  2)  (  5, 12,  1)  (  5, 20,  1)  (  5, 20,  1)

 MAXIMUM RESIDUAL FOR EACH ITERATION (1 INDICATES THE FIRST INNER ITERATION):

    RESIDUAL       RESIDUAL       RESIDUAL       RESIDUAL       RESIDUAL    
   LAYER,ROW,COL  LAYER,ROW,COL  LAYER,ROW,COL  LAYER,ROW,COL  LAYER,ROW,COL
 ---------------------------------------------------------------------------
  1 -0.5063E-03  0 -0.3817E-03  0 -0.2528E-03  0 -0.1581E-03  0 -0.9286E-04
   (  3, 17, 17)  (  3, 17, 17)  (  3, 17, 17)  (  3, 17, 17)  (  3, 17, 17)
  0 -0.5679E-04  0 -0.3111E-04  0 -0.2603E-04  0 -0.2107E-04  0 -0.1595E-04
   (  3, 20, 11)  (  3, 20, 11)  (  4, 16, 17)  (  4, 16, 17)  (  4, 16, 17)
  0 -0.1145E-04  0 -0.7742E-05  0 -0.5202E-05  0  0.3513E-05  0  0.2628E-05
   (  4, 16, 17)  (  4, 16, 17)  (  4, 16, 17)  (  3, 21,  6)  (  3, 21,  6)
  0  0.1890E-05  0  0.1411E-05  0  0.9747E-06  0  0.5852E-06  0  0.3334E-06
   (  3, 21,  6)  (  3, 21,  6)  (  3, 21,  6)  (  3, 21,  6)  (  3, 21,  6)
  0  0.2261E-06  0 -0.1148E-06  0 -0.8341E-07  0 -0.5639E-07  0 -0.4072E-07
   (  3, 21,  6)  (  5, 15, 17)  (  5, 15, 17)  (  5, 15, 17)  (  5, 15, 17)
  0 -0.2950E-07  0 -0.1958E-07  0 -0.1264E-07  0 -0.9189E-08  0 -0.6851E-08
   (  5, 15, 17)  (  5, 16, 17)  (  5, 16, 17)  (  3, 21,  6)  (  3, 21,  6)
  1 -0.1372E-05  0 -0.1078E-05  0 -0.7900E-06  0 -0.4825E-06  0  0.3367E-06
   (  3, 11,  3)  (  3, 11,  3)  (  3, 11,  3)  (  3, 11,  3)  (  4, 11,  3)
  0  0.2520E-06  0 -0.2108E-06  0  0.1588E-06  0 -0.9861E-07  0 -0.7846E-07
   (  4, 12,  3)  (  4, 21,  1)  (  4, 20,  2)  (  4, 21,  1)  (  4, 10,  2)
  0 -0.6562E-07  0  0.5077E-07  0  0.3530E-07  0 -0.2550E-07  0 -0.1741E-07
   (  4, 10,  2)  (  4, 21,  2)  (  4, 21,  2)  (  4, 10,  2)  (  4, 10,  2)
  0 -0.1361E-07  0 -0.9285E-08  0 -0.8103E-08  1 -0.6348E-08
   (  4, 10,  2)  (  4, 19,  2)  (  4, 20,  2)  (  4, 20,  2)



 OUTPUT CONTROL FOR STRESS PERIOD   60   TIME STEP    1
    SAVE HEAD FOR ALL LAYERS
    SAVE DRAWDOWN FOR ALL LAYERS
    SAVE BUDGET
    PRINT BUDGET
 UBDSV1 SAVING "         STORAGE" ON UNIT   9 AT TIME STEP  1, STRESS PERIOD  60
 UBDSV2 SAVING "   CONSTANT HEAD" ON UNIT   9 AT TIME STEP  1, STRESS PERIOD  60
 UBDSV1 SAVING "FLOW RIGHT FACE " ON UNIT   9 AT TIME STEP  1, STRESS PERIOD  60
 UBDSV1 SAVING "FLOW FRONT FACE " ON UNIT   9 AT TIME STEP  1, STRESS PERIOD  60
 UBDSV1 SAVING "FLOW LOWER FACE " ON UNIT   9 AT TIME STEP  1, STRESS PERIOD  60
 UBDSV3 SAVING "        RECHARGE" ON UNIT   9 AT TIME STEP  1, STRESS PERIOD  60

 HEAD WILL BE SAVED ON UNIT   37 AT END OF TIME STEP    1, STRESS PERIOD   60

 DRAWDOWN WILL BE SAVED ON UNIT   38 AT END OF TIME STEP    1, STRESS PERIOD   60
1
  VOLUMETRIC BUDGET FOR ENTIRE MODEL AT END OF TIME STEP    1, STRESS PERIOD  60
  ------------------------------------------------------------------------------

     CUMULATIVE VOLUMES      L**3       RATES FOR THIS TIME STEP      L**3/T
     ------------------                 ------------------------

           IN:                                      IN:
           ---                                      ---
             STORAGE =       10063.4668               STORAGE =           0.0000
       CONSTANT HEAD =       16009.9307         CONSTANT HEAD =       2.0243E-03
            RECHARGE =         659.1833              RECHARGE =       9.7813E-05

            TOTAL IN =       26732.5820              TOTAL IN =       2.1221E-03

          OUT:                                     OUT:
          ----                                     ----
             STORAGE =        5108.9258               STORAGE =       4.8128E-04
       CONSTANT HEAD =       21624.3184         CONSTANT HEAD =       1.6409E-03
            RECHARGE =           0.0000              RECHARGE =           0.0000

           TOTAL OUT =       26733.2441             TOTAL OUT =       2.1222E-03

            IN - OUT =          -0.6621              IN - OUT =      -7.1945E-08

 PERCENT DISCREPANCY =          -0.00     PERCENT DISCREPANCY =          -0.00






         TIME SUMMARY AT END OF TIME STEP    1 IN STRESS PERIOD   60
                    SECONDS     MINUTES      HOURS       DAYS        YEARS
                    -----------------------------------------------------------
   TIME STEP LENGTH  86400.      1440.0      24.000      1.0000     2.73785E-03
 STRESS PERIOD TIME  86400.      1440.0      24.000      1.0000     2.73785E-03
         TOTAL TIME 6.73920E+06 1.12320E+05  1872.0      78.000     0.21355    
1
1
                            STRESS PERIOD NO.   61, LENGTH =   86400.00    
                            -----------------------------------------------

                              NUMBER OF TIME STEPS =     1

                               MULTIPLIER FOR DELT =     1.000

                            INITIAL TIME STEP SIZE =   86400.00    

 REUSING RECH FROM LAST STRESS PERIOD

 CHD NO.   LAYER   ROW   COL    START HEAD        END HEAD         IFACE           
 ----------------------------------------------------------------------------------
      1      4      1      1       109.5           109.5           0.000    
      2      5      1      1       109.5           109.5           0.000    
      3      4      1      2       109.5           109.5           0.000    
      4      5      1      2       109.5           109.5           0.000    
      5      4      1      3       109.5           109.5           0.000    
      6      5      1      3       109.5           109.5           0.000    
      7      4      1      4       109.5           109.5           0.000    
      8      5      1      4       109.5           109.5           0.000    
      9      4      1      5       109.5           109.5           0.000    
     10      5      1      5       109.5           109.5           0.000    
     11      4      1      6       109.5           109.5           0.000    
     12      5      1      6       109.5           109.5           0.000    
     13      4      1      7       109.5           109.5           0.000    
     14      5      1      7       109.5           109.5           0.000    
     15      4      1      8       109.5           109.5           0.000    
     16      5      1      8       109.5           109.5           0.000    
     17      4      1      9       109.5           109.5           0.000    
     18      5      1      9       109.5           109.5           0.000    
     19      4      1     10       109.5           109.5           0.000    
     20      5      1     10       109.5           109.5           0.000    
     21      4      1     11       109.5           109.5           0.000    
     22      5      1     11       109.5           109.5           0.000    
     23      4      1     12       109.5           109.5           0.000    
     24      5      1     12       109.5           109.5           0.000    
     25      4      1     13       109.5           109.5           0.000    
     26      5      1     13       109.5           109.5           0.000    
     27      4      1     14       109.5           109.5           0.000    
     28      5      1     14       109.5           109.5           0.000    
     29      4      1     15       109.5           109.5           0.000    
     30      5      1     15       109.5           109.5           0.000    
     31      4      1     16       109.5           109.5           0.000    
     32      5      1     16       109.5           109.5           0.000    
     33      4      1     17       109.5           109.5           0.000    
     34      5      1     17       109.5           109.5           0.000    
     35      4     17     17       109.3           109.3           0.000    
     36      5     17     17       109.3           109.3           0.000    
     37      4     18     17       109.3           109.3           0.000    
     38      5     18     17       109.3           109.3           0.000    
     39      4     18     16       109.3           109.3           0.000    
     40      5     18     16       109.3           109.3           0.000    
     41      4     19     16       109.3           109.3           0.000    
     42      5     19     16       109.3           109.3           0.000    
     43      4     19     15       109.3           109.3           0.000    
     44      5     19     15       109.3           109.3           0.000    
     45      4     20     15       109.3           109.3           0.000    
     46      5     20     15       109.3           109.3           0.000    
     47      4     20     14       109.3           109.3           0.000    
     48      5     20     14       109.3           109.3           0.000    
     49      4     20     13       109.3           109.3           0.000    
     50      5     20     13       109.3           109.3           0.000    
     51      4     20     12       109.3           109.3           0.000    
     52      5     20     12       109.3           109.3           0.000    
     53      4     20     11       109.3           109.3           0.000    
     54      5     20     11       109.3           109.3           0.000    
     55      4     21     11       109.3           109.3           0.000    
     56      5     21     11       109.3           109.3           0.000    
     57      4     21     10       109.3           109.3           0.000    
     58      5     21     10       109.3           109.3           0.000    
     59      4     21      9       109.3           109.3           0.000    
     60      5     21      9       109.3           109.3           0.000    
     61      4     21      8       109.3           109.3           0.000    
     62      5     21      8       109.3           109.3           0.000    
     63      4     21      7       109.3           109.3           0.000    
     64      5     21      7       109.3           109.3           0.000    
     65      4     21      6       109.3           109.3           0.000    
     66      5     21      6       109.3           109.3           0.000    
     67      4     21      5       109.3           109.3           0.000    
     68      5     21      5       109.3           109.3           0.000    
     69      4     22      5       109.3           109.3           0.000    
     70      5     22      5       109.3           109.3           0.000    
     71      4     22      4       109.3           109.3           0.000    
     72      5     22      4       109.3           109.3           0.000    
     73      4     22      3       109.3           109.3           0.000    
     74      5     22      3       109.3           109.3           0.000    
     75      4     22      2       109.3           109.3           0.000    
     76      5     22      2       109.3           109.3           0.000    
     77      4     22      1       109.3           109.3           0.000    
     78      5     22      1       109.3           109.3           0.000    


     78 TIME-VARIANT SPECIFIED-HEAD CELLS

 SOLVING FOR HEAD 


     3 CALLS TO PCG ROUTINE FOR TIME STEP   1 IN STRESS PERIOD   61
    45 TOTAL ITERATIONS

 MAXIMUM HEAD CHANGE FOR EACH ITERATION (1 INDICATES THE FIRST INNER ITERATION):

    HEAD CHANGE    HEAD CHANGE    HEAD CHANGE    HEAD CHANGE    HEAD CHANGE 
   LAYER,ROW,COL  LAYER,ROW,COL  LAYER,ROW,COL  LAYER,ROW,COL  LAYER,ROW,COL
 ---------------------------------------------------------------------------
  1 -0.4662E-01  0  0.2875E-01  0  0.1940E-01  0 -0.2748E-01  0  0.2328E-01
   (  5, 21,  2)  (  5, 20,  1)  (  5, 21,  2)  (  5, 19,  1)  (  5, 18,  1)
  0 -0.1371E-01  0  0.6977E-02  0  0.3481E-02  0 -0.3817E-02  0 -0.2092E-02
   (  5, 16,  1)  (  5, 15,  1)  (  5, 12,  4)  (  5, 19,  1)  (  5, 17,  3)
  0  0.1834E-02  0 -0.1470E-02  0  0.8394E-03  0 -0.5770E-03  0  0.3513E-03
   (  5, 16,  3)  (  5, 15,  3)  (  5, 15,  4)  (  5, 14,  4)  (  5, 13,  5)
  0 -0.1825E-03  0  0.1655E-03  0 -0.1128E-03  0 -0.7778E-04  0 -0.6741E-04
   (  5, 12,  5)  (  5, 15,  5)  (  5, 14,  5)  (  5, 19,  3)  (  5, 13,  1)
  0  0.5204E-04  0 -0.3196E-04  0 -0.2188E-04  0 -0.2247E-04  0 -0.9621E-05
   (  5, 18,  3)  (  5, 18,  2)  (  5, 13,  4)  (  5, 16,  1)  (  5, 11,  6)
  0 -0.8381E-05  0  0.5108E-05  0 -0.5049E-05  0  0.3141E-05  0 -0.2304E-05
   (  5,  7,  1)  (  5,  8,  1)  (  5, 18,  1)  (  5, 17,  1)  (  5,  6,  2)
  1  0.5447E-04  0  0.4869E-04  0  0.5694E-04  0  0.3294E-04  0  0.2439E-04
   (  5, 12,  2)  (  3, 12,  2)  (  3, 12,  1)  (  3, 12,  2)  (  5, 18,  1)
  0 -0.1735E-04  0 -0.9702E-05  0 -0.9088E-05  0  0.6140E-05  0 -0.3385E-05
   (  5, 18,  1)  (  5, 17,  3)  (  5, 19,  2)  (  5, 18,  3)  (  5, 15,  3)
  0  0.2759E-05  0 -0.1626E-05  0  0.1385E-05  0 -0.7980E-06  1  0.6614E-06
   (  5, 16,  1)  (  5, 14,  5)  (  5, 12,  5)  (  5, 11,  5)  (  5, 11,  6)

 MAXIMUM RESIDUAL FOR EACH ITERATION (1 INDICATES THE FIRST INNER ITERATION):

    RESIDUAL       RESIDUAL       RESIDUAL       RESIDUAL       RESIDUAL    
   LAYER,ROW,COL  LAYER,ROW,COL  LAYER,ROW,COL  LAYER,ROW,COL  LAYER,ROW,COL
 ---------------------------------------------------------------------------
  1  0.8455E-03  0  0.6803E-03  0  0.5231E-03  0  0.3451E-03  0  0.2085E-03
   (  3, 17, 17)  (  3, 17, 17)  (  3, 17, 17)  (  3, 17, 17)  (  3, 17, 17)
  0  0.1336E-03  0  0.8087E-04  0  0.5361E-04  0  0.4243E-04  0  0.3427E-04
   (  3, 20, 11)  (  3, 20, 11)  (  3, 20, 11)  (  4, 16, 17)  (  4, 16, 17)
  0  0.2463E-04  0  0.1776E-04  0  0.1240E-04  0  0.8596E-05  0  0.5991E-05
   (  4, 16, 17)  (  4, 16, 17)  (  4, 16, 17)  (  4, 16, 17)  (  4, 16, 17)
  0  0.4163E-05  0 -0.2825E-05  0 -0.2003E-05  0 -0.1442E-05  0 -0.1155E-05
   (  4, 16, 17)  (  3, 21,  6)  (  3, 21,  6)  (  3, 21,  6)  (  3, 21,  6)
  0 -0.7231E-06  0 -0.3908E-06  0 -0.2200E-06  0 -0.1415E-06  0  0.1014E-06
   (  3, 21,  6)  (  3, 21,  6)  (  3, 21,  6)  (  3, 21,  5)  (  5, 15, 17)
  0  0.7107E-07  0  0.4837E-07  0  0.3773E-07  0  0.2724E-07  0  0.1991E-07
   (  5, 15, 17)  (  5, 15, 17)  (  5, 15, 17)  (  3, 17, 17)  (  3, 17, 17)
  1 -0.7091E-06  0 -0.5626E-06  0 -0.3693E-06  0 -0.2241E-06  0 -0.1662E-06
   (  3, 20,  2)  (  3, 12,  1)  (  3, 12,  1)  (  3, 12,  1)  (  4, 21,  1)
  0 -0.1313E-06  0 -0.1176E-06  0  0.8886E-07  0  0.5385E-07  0 -0.4601E-07
   (  4, 21,  1)  (  4, 21,  1)  (  4, 20,  2)  (  4, 20,  2)  (  4, 11,  2)
  0 -0.2885E-07  0 -0.1787E-07  0 -0.1331E-07  0 -0.1075E-07  1 -0.9358E-08
   (  4, 11,  2)  (  4, 11,  2)  (  4, 11,  2)  (  4, 19,  2)  (  4, 11,  2)



 OUTPUT CONTROL FOR STRESS PERIOD   61   TIME STEP    1
    SAVE HEAD FOR ALL LAYERS
    SAVE DRAWDOWN FOR ALL LAYERS
    SAVE BUDGET
    PRINT BUDGET
 UBDSV1 SAVING "         STORAGE" ON UNIT   9 AT TIME STEP  1, STRESS PERIOD  61
 UBDSV2 SAVING "   CONSTANT HEAD" ON UNIT   9 AT TIME STEP  1, STRESS PERIOD  61
 UBDSV1 SAVING "FLOW RIGHT FACE " ON UNIT   9 AT TIME STEP  1, STRESS PERIOD  61
 UBDSV1 SAVING "FLOW FRONT FACE " ON UNIT   9 AT TIME STEP  1, STRESS PERIOD  61
 UBDSV1 SAVING "FLOW LOWER FACE " ON UNIT   9 AT TIME STEP  1, STRESS PERIOD  61
 UBDSV3 SAVING "        RECHARGE" ON UNIT   9 AT TIME STEP  1, STRESS PERIOD  61

 HEAD WILL BE SAVED ON UNIT   37 AT END OF TIME STEP    1, STRESS PERIOD   61

 DRAWDOWN WILL BE SAVED ON UNIT   38 AT END OF TIME STEP    1, STRESS PERIOD   61
1
  VOLUMETRIC BUDGET FOR ENTIRE MODEL AT END OF TIME STEP    1, STRESS PERIOD  61
  ------------------------------------------------------------------------------

     CUMULATIVE VOLUMES      L**3       RATES FOR THIS TIME STEP      L**3/T
     ------------------                 ------------------------

           IN:                                      IN:
           ---                                      ---
             STORAGE =       10097.0049               STORAGE =       3.8817E-04
       CONSTANT HEAD =       16149.0215         CONSTANT HEAD =       1.6098E-03
            RECHARGE =         667.6344              RECHARGE =       9.7813E-05

            TOTAL IN =       26913.6621              TOTAL IN =       2.0958E-03

          OUT:                                     OUT:
          ----                                     ----
             STORAGE =        5108.9258               STORAGE =           0.0000
       CONSTANT HEAD =       21805.4043         CONSTANT HEAD =       2.0959E-03
            RECHARGE =           0.0000              RECHARGE =           0.0000

           TOTAL OUT =       26914.3301             TOTAL OUT =       2.0959E-03

            IN - OUT =          -0.6680              IN - OUT =      -6.4494E-08

 PERCENT DISCREPANCY =          -0.00     PERCENT DISCREPANCY =          -0.00






         TIME SUMMARY AT END OF TIME STEP    1 IN STRESS PERIOD   61
                    SECONDS     MINUTES      HOURS       DAYS        YEARS
                    -----------------------------------------------------------
   TIME STEP LENGTH  86400.      1440.0      24.000      1.0000     2.73785E-03
 STRESS PERIOD TIME  86400.      1440.0      24.000      1.0000     2.73785E-03
         TOTAL TIME 6.82560E+06 1.13760E+05  1896.0      79.000     0.21629    
1
1
                            STRESS PERIOD NO.   62, LENGTH =   86400.00    
                            -----------------------------------------------

                              NUMBER OF TIME STEPS =     1

                               MULTIPLIER FOR DELT =     1.000

                            INITIAL TIME STEP SIZE =   86400.00    

 REUSING RECH FROM LAST STRESS PERIOD

 CHD NO.   LAYER   ROW   COL    START HEAD        END HEAD         IFACE           
 ----------------------------------------------------------------------------------
      1      4      1      1       109.5           109.4           0.000    
      2      5      1      1       109.5           109.4           0.000    
      3      4      1      2       109.5           109.4           0.000    
      4      5      1      2       109.5           109.4           0.000    
      5      4      1      3       109.5           109.4           0.000    
      6      5      1      3       109.5           109.4           0.000    
      7      4      1      4       109.5           109.4           0.000    
      8      5      1      4       109.5           109.4           0.000    
      9      4      1      5       109.5           109.4           0.000    
     10      5      1      5       109.5           109.4           0.000    
     11      4      1      6       109.5           109.4           0.000    
     12      5      1      6       109.5           109.4           0.000    
     13      4      1      7       109.5           109.4           0.000    
     14      5      1      7       109.5           109.4           0.000    
     15      4      1      8       109.5           109.4           0.000    
     16      5      1      8       109.5           109.4           0.000    
     17      4      1      9       109.5           109.4           0.000    
     18      5      1      9       109.5           109.4           0.000    
     19      4      1     10       109.5           109.4           0.000    
     20      5      1     10       109.5           109.4           0.000    
     21      4      1     11       109.5           109.4           0.000    
     22      5      1     11       109.5           109.4           0.000    
     23      4      1     12       109.5           109.4           0.000    
     24      5      1     12       109.5           109.4           0.000    
     25      4      1     13       109.5           109.4           0.000    
     26      5      1     13       109.5           109.4           0.000    
     27      4      1     14       109.5           109.4           0.000    
     28      5      1     14       109.5           109.4           0.000    
     29      4      1     15       109.5           109.4           0.000    
     30      5      1     15       109.5           109.4           0.000    
     31      4      1     16       109.5           109.4           0.000    
     32      5      1     16       109.5           109.4           0.000    
     33      4      1     17       109.5           109.4           0.000    
     34      5      1     17       109.5           109.4           0.000    
     35      4     17     17       109.3           109.2           0.000    
     36      5     17     17       109.3           109.2           0.000    
     37      4     18     17       109.3           109.2           0.000    
     38      5     18     17       109.3           109.2           0.000    
     39      4     18     16       109.3           109.2           0.000    
     40      5     18     16       109.3           109.2           0.000    
     41      4     19     16       109.3           109.2           0.000    
     42      5     19     16       109.3           109.2           0.000    
     43      4     19     15       109.3           109.2           0.000    
     44      5     19     15       109.3           109.2           0.000    
     45      4     20     15       109.3           109.2           0.000    
     46      5     20     15       109.3           109.2           0.000    
     47      4     20     14       109.3           109.2           0.000    
     48      5     20     14       109.3           109.2           0.000    
     49      4     20     13       109.3           109.2           0.000    
     50      5     20     13       109.3           109.2           0.000    
     51      4     20     12       109.3           109.2           0.000    
     52      5     20     12       109.3           109.2           0.000    
     53      4     20     11       109.3           109.2           0.000    
     54      5     20     11       109.3           109.2           0.000    
     55      4     21     11       109.3           109.2           0.000    
     56      5     21     11       109.3           109.2           0.000    
     57      4     21     10       109.3           109.2           0.000    
     58      5     21     10       109.3           109.2           0.000    
     59      4     21      9       109.3           109.2           0.000    
     60      5     21      9       109.3           109.2           0.000    
     61      4     21      8       109.3           109.2           0.000    
     62      5     21      8       109.3           109.2           0.000    
     63      4     21      7       109.3           109.2           0.000    
     64      5     21      7       109.3           109.2           0.000    
     65      4     21      6       109.3           109.2           0.000    
     66      5     21      6       109.3           109.2           0.000    
     67      4     21      5       109.3           109.2           0.000    
     68      5     21      5       109.3           109.2           0.000    
     69      4     22      5       109.3           109.2           0.000    
     70      5     22      5       109.3           109.2           0.000    
     71      4     22      4       109.3           109.2           0.000    
     72      5     22      4       109.3           109.2           0.000    
     73      4     22      3       109.3           109.2           0.000    
     74      5     22      3       109.3           109.2           0.000    
     75      4     22      2       109.3           109.2           0.000    
     76      5     22      2       109.3           109.2           0.000    
     77      4     22      1       109.3           109.2           0.000    
     78      5     22      1       109.3           109.2           0.000    


     78 TIME-VARIANT SPECIFIED-HEAD CELLS

 SOLVING FOR HEAD 


     3 CALLS TO PCG ROUTINE FOR TIME STEP   1 IN STRESS PERIOD   62
    51 TOTAL ITERATIONS

 MAXIMUM HEAD CHANGE FOR EACH ITERATION (1 INDICATES THE FIRST INNER ITERATION):

    HEAD CHANGE    HEAD CHANGE    HEAD CHANGE    HEAD CHANGE    HEAD CHANGE 
   LAYER,ROW,COL  LAYER,ROW,COL  LAYER,ROW,COL  LAYER,ROW,COL  LAYER,ROW,COL
 ---------------------------------------------------------------------------
  1 -0.1474      0  0.1062      0 -0.6979E-01  0 -0.6034E-01  0  0.5629E-01
   (  5, 21,  2)  (  5, 20,  1)  (  5, 18,  1)  (  5, 20,  1)  (  5, 18,  1)
  0 -0.4286E-01  0  0.2340E-01  0 -0.1238E-01  0 -0.8640E-02  0  0.5553E-02
   (  5, 17,  1)  (  5, 15,  1)  (  5, 19,  1)  (  5, 12,  4)  (  5, 18,  1)
  0  0.4778E-02  0 -0.3636E-02  0  0.2418E-02  0 -0.1129E-02  0  0.8293E-03
   (  5, 16,  3)  (  5, 15,  3)  (  5, 16,  5)  (  5, 14,  4)  (  5, 16,  3)
  0 -0.4965E-03  0 -0.3025E-03  0 -0.3253E-03  0  0.2401E-03  0 -0.1495E-03
   (  5, 18,  2)  (  5,  6,  1)  (  5, 14,  4)  (  5, 13,  5)  (  5,  6,  1)
  0 -0.1186E-03  0  0.8125E-04  0 -0.6103E-04  0 -0.2684E-04  0 -0.2238E-04
   (  5, 15,  1)  (  5, 14,  1)  (  5,  6,  1)  (  5, 16,  1)  (  5, 11,  2)
  0 -0.1787E-04  0  0.1414E-04  0  0.6535E-05  0 -0.6318E-05  0  0.3822E-05
   (  5, 19,  2)  (  5,  7,  1)  (  5, 17,  1)  (  5, 18,  1)  (  5, 18,  1)
  1  0.4695E-03  0  0.4013E-03  0  0.4779E-03  0 -0.2392E-03  0  0.2417E-03
   (  5, 11,  3)  (  3, 11,  3)  (  5, 13,  1)  (  5, 15,  1)  (  5, 16,  1)
  0 -0.1471E-03  0  0.1246E-03  0 -0.9585E-04  0  0.6342E-04  0 -0.3509E-04
   (  5, 17,  1)  (  5, 19,  1)  (  5, 20,  1)  (  5, 20,  1)  (  5, 14,  3)
  0  0.1700E-04  0  0.1203E-04  0 -0.8995E-05  0  0.6763E-05  0  0.3847E-05
   (  5, 16,  6)  (  5, 18,  3)  (  5, 18,  2)  (  5, 15,  4)  (  5, 12,  7)
  0  0.2964E-05  0  0.2441E-05  0  0.1624E-05  0 -0.1164E-05  0  0.9483E-06
   (  5,  8,  1)  (  5, 10,  4)  (  5, 16,  1)  (  5, 17,  1)  (  5, 14,  1)
  1 -0.6349E-06
   (  5, 15,  1)

 MAXIMUM RESIDUAL FOR EACH ITERATION (1 INDICATES THE FIRST INNER ITERATION):

    RESIDUAL       RESIDUAL       RESIDUAL       RESIDUAL       RESIDUAL    
   LAYER,ROW,COL  LAYER,ROW,COL  LAYER,ROW,COL  LAYER,ROW,COL  LAYER,ROW,COL
 ---------------------------------------------------------------------------
  1  0.2838E-02  0  0.2273E-02  0  0.1658E-02  0  0.1146E-02  0  0.7077E-03
   (  3, 17, 17)  (  3, 17, 17)  (  3, 17, 17)  (  3, 17, 17)  (  3, 17, 17)
  0  0.4587E-03  0  0.2778E-03  0  0.1764E-03  0  0.1258E-03  0  0.1004E-03
   (  3, 20, 11)  (  3, 20, 11)  (  3, 20, 11)  (  4, 16, 17)  (  4, 16, 17)
  0  0.7432E-04  0  0.5456E-04  0  0.3912E-04  0  0.2700E-04  0  0.1788E-04
   (  4, 16, 17)  (  4, 16, 17)  (  4, 16, 17)  (  4, 16, 17)  (  4, 16, 17)
  0  0.1156E-04  0  0.7599E-05  0  0.5220E-05  0 -0.3411E-05  0 -0.2072E-05
   (  4, 16, 17)  (  4, 16, 17)  (  4, 16, 17)  (  3, 21,  6)  (  3, 21,  6)
  0 -0.1349E-05  0 -0.8821E-06  0  0.4958E-06  0  0.3768E-06  0  0.3222E-06
   (  3, 21,  6)  (  3, 21,  6)  (  3, 17, 17)  (  3, 17, 17)  (  3, 17, 17)
  0  0.2498E-06  0  0.1881E-06  0  0.1402E-06  0  0.1136E-06  0  0.8426E-07
   (  3, 17, 17)  (  3, 17, 17)  (  3, 17, 17)  (  3, 17, 17)  (  3, 17, 17)
  1 -0.3550E-05  0 -0.2715E-05  0 -0.1886E-05  0 -0.1216E-05  0 -0.8758E-06
   (  3, 11,  1)  (  3, 11,  1)  (  3, 11,  1)  (  3, 11,  1)  (  4, 21,  1)
  0  0.7585E-06  0 -0.7226E-06  0 -0.4284E-06  0 -0.3642E-06  0 -0.2713E-06
   (  4, 11,  4)  (  4, 21,  1)  (  4, 21,  1)  (  4, 21,  1)  (  4, 10,  2)
  0  0.1985E-06  0  0.1482E-06  0  0.9340E-07  0 -0.6672E-07  0 -0.3225E-07
   (  4, 21,  2)  (  4, 21,  2)  (  4, 21,  2)  (  4, 10,  2)  (  4, 20,  2)
  0 -0.2984E-07  0 -0.2244E-07  0 -0.1217E-07  0 -0.8248E-08  0 -0.7139E-08
   (  4, 20,  2)  (  4, 20,  2)  (  4, 21,  3)  (  4, 21,  3)  (  4, 21,  2)
  1  0.5524E-08
   (  4, 20,  3)



 OUTPUT CONTROL FOR STRESS PERIOD   62   TIME STEP    1
    SAVE HEAD FOR ALL LAYERS
    SAVE DRAWDOWN FOR ALL LAYERS
    SAVE BUDGET
    PRINT BUDGET
 UBDSV1 SAVING "         STORAGE" ON UNIT   9 AT TIME STEP  1, STRESS PERIOD  62
 UBDSV2 SAVING "   CONSTANT HEAD" ON UNIT   9 AT TIME STEP  1, STRESS PERIOD  62
 UBDSV1 SAVING "FLOW RIGHT FACE " ON UNIT   9 AT TIME STEP  1, STRESS PERIOD  62
 UBDSV1 SAVING "FLOW FRONT FACE " ON UNIT   9 AT TIME STEP  1, STRESS PERIOD  62
 UBDSV1 SAVING "FLOW LOWER FACE " ON UNIT   9 AT TIME STEP  1, STRESS PERIOD  62
 UBDSV3 SAVING "        RECHARGE" ON UNIT   9 AT TIME STEP  1, STRESS PERIOD  62

 HEAD WILL BE SAVED ON UNIT   37 AT END OF TIME STEP    1, STRESS PERIOD   62

 DRAWDOWN WILL BE SAVED ON UNIT   38 AT END OF TIME STEP    1, STRESS PERIOD   62
1
  VOLUMETRIC BUDGET FOR ENTIRE MODEL AT END OF TIME STEP    1, STRESS PERIOD  62
  ------------------------------------------------------------------------------

     CUMULATIVE VOLUMES      L**3       RATES FOR THIS TIME STEP      L**3/T
     ------------------                 ------------------------

           IN:                                      IN:
           ---                                      ---
             STORAGE =       10202.2236               STORAGE =       1.2178E-03
       CONSTANT HEAD =       16306.0107         CONSTANT HEAD =       1.8170E-03
            RECHARGE =         676.0854              RECHARGE =       9.7813E-05

            TOTAL IN =       27184.3203              TOTAL IN =       3.1326E-03

          OUT:                                     OUT:
          ----                                     ----
             STORAGE =        5108.9258               STORAGE =           0.0000
       CONSTANT HEAD =       22076.0703         CONSTANT HEAD =       3.1327E-03
            RECHARGE =           0.0000              RECHARGE =           0.0000

           TOTAL OUT =       27184.9961             TOTAL OUT =       3.1327E-03

            IN - OUT =          -0.6758              IN - OUT =      -7.8930E-08

 PERCENT DISCREPANCY =          -0.00     PERCENT DISCREPANCY =          -0.00






         TIME SUMMARY AT END OF TIME STEP    1 IN STRESS PERIOD   62
                    SECONDS     MINUTES      HOURS       DAYS        YEARS
                    -----------------------------------------------------------
   TIME STEP LENGTH  86400.      1440.0      24.000      1.0000     2.73785E-03
 STRESS PERIOD TIME  86400.      1440.0      24.000      1.0000     2.73785E-03
         TOTAL TIME 6.91200E+06 1.15200E+05  1920.0      80.000     0.21903    
1
1
                            STRESS PERIOD NO.   63, LENGTH =   345600.0    
                            -----------------------------------------------

                              NUMBER OF TIME STEPS =     4

                               MULTIPLIER FOR DELT =     1.000

                            INITIAL TIME STEP SIZE =   86400.00    

 REUSING RECH FROM LAST STRESS PERIOD

 CHD NO.   LAYER   ROW   COL    START HEAD        END HEAD         IFACE           
 ----------------------------------------------------------------------------------
      1      4      1      1       109.4           109.4           0.000    
      2      5      1      1       109.4           109.4           0.000    
      3      4      1      2       109.4           109.4           0.000    
      4      5      1      2       109.4           109.4           0.000    
      5      4      1      3       109.4           109.4           0.000    
      6      5      1      3       109.4           109.4           0.000    
      7      4      1      4       109.4           109.4           0.000    
      8      5      1      4       109.4           109.4           0.000    
      9      4      1      5       109.4           109.4           0.000    
     10      5      1      5       109.4           109.4           0.000    
     11      4      1      6       109.4           109.4           0.000    
     12      5      1      6       109.4           109.4           0.000    
     13      4      1      7       109.4           109.4           0.000    
     14      5      1      7       109.4           109.4           0.000    
     15      4      1      8       109.4           109.4           0.000    
     16      5      1      8       109.4           109.4           0.000    
     17      4      1      9       109.4           109.4           0.000    
     18      5      1      9       109.4           109.4           0.000    
     19      4      1     10       109.4           109.4           0.000    
     20      5      1     10       109.4           109.4           0.000    
     21      4      1     11       109.4           109.4           0.000    
     22      5      1     11       109.4           109.4           0.000    
     23      4      1     12       109.4           109.4           0.000    
     24      5      1     12       109.4           109.4           0.000    
     25      4      1     13       109.4           109.4           0.000    
     26      5      1     13       109.4           109.4           0.000    
     27      4      1     14       109.4           109.4           0.000    
     28      5      1     14       109.4           109.4           0.000    
     29      4      1     15       109.4           109.4           0.000    
     30      5      1     15       109.4           109.4           0.000    
     31      4      1     16       109.4           109.4           0.000    
     32      5      1     16       109.4           109.4           0.000    
     33      4      1     17       109.4           109.4           0.000    
     34      5      1     17       109.4           109.4           0.000    
     35      4     17     17       109.2           109.2           0.000    
     36      5     17     17       109.2           109.2           0.000    
     37      4     18     17       109.2           109.2           0.000    
     38      5     18     17       109.2           109.2           0.000    
     39      4     18     16       109.2           109.2           0.000    
     40      5     18     16       109.2           109.2           0.000    
     41      4     19     16       109.2           109.2           0.000    
     42      5     19     16       109.2           109.2           0.000    
     43      4     19     15       109.2           109.2           0.000    
     44      5     19     15       109.2           109.2           0.000    
     45      4     20     15       109.2           109.2           0.000    
     46      5     20     15       109.2           109.2           0.000    
     47      4     20     14       109.2           109.2           0.000    
     48      5     20     14       109.2           109.2           0.000    
     49      4     20     13       109.2           109.2           0.000    
     50      5     20     13       109.2           109.2           0.000    
     51      4     20     12       109.2           109.2           0.000    
     52      5     20     12       109.2           109.2           0.000    
     53      4     20     11       109.2           109.2           0.000    
     54      5     20     11       109.2           109.2           0.000    
     55      4     21     11       109.2           109.2           0.000    
     56      5     21     11       109.2           109.2           0.000    
     57      4     21     10       109.2           109.2           0.000    
     58      5     21     10       109.2           109.2           0.000    
     59      4     21      9       109.2           109.2           0.000    
     60      5     21      9       109.2           109.2           0.000    
     61      4     21      8       109.2           109.2           0.000    
     62      5     21      8       109.2           109.2           0.000    
     63      4     21      7       109.2           109.2           0.000    
     64      5     21      7       109.2           109.2           0.000    
     65      4     21      6       109.2           109.2           0.000    
     66      5     21      6       109.2           109.2           0.000    
     67      4     21      5       109.2           109.2           0.000    
     68      5     21      5       109.2           109.2           0.000    
     69      4     22      5       109.2           109.2           0.000    
     70      5     22      5       109.2           109.2           0.000    
     71      4     22      4       109.2           109.2           0.000    
     72      5     22      4       109.2           109.2           0.000    
     73      4     22      3       109.2           109.2           0.000    
     74      5     22      3       109.2           109.2           0.000    
     75      4     22      2       109.2           109.2           0.000    
     76      5     22      2       109.2           109.2           0.000    
     77      4     22      1       109.2           109.2           0.000    
     78      5     22      1       109.2           109.2           0.000    


     78 TIME-VARIANT SPECIFIED-HEAD CELLS

 SOLVING FOR HEAD 


     3 CALLS TO PCG ROUTINE FOR TIME STEP   1 IN STRESS PERIOD   63
    46 TOTAL ITERATIONS

 MAXIMUM HEAD CHANGE FOR EACH ITERATION (1 INDICATES THE FIRST INNER ITERATION):

    HEAD CHANGE    HEAD CHANGE    HEAD CHANGE    HEAD CHANGE    HEAD CHANGE 
   LAYER,ROW,COL  LAYER,ROW,COL  LAYER,ROW,COL  LAYER,ROW,COL  LAYER,ROW,COL
 ---------------------------------------------------------------------------
  1 -0.4249E-01  0  0.3340E-01  0 -0.2849E-01  0  0.1836E-01  0 -0.1325E-01
   (  5, 21,  2)  (  5, 20,  1)  (  5, 18,  1)  (  5, 16,  1)  (  5, 15,  1)
  0  0.7634E-02  0 -0.6471E-02  0 -0.2986E-02  0 -0.1983E-02  0  0.1380E-02
   (  5, 19,  1)  (  5, 18,  1)  (  5, 16,  3)  (  5, 11,  3)  (  5, 18,  1)
  0  0.8161E-03  0 -0.5642E-03  0  0.5865E-03  0 -0.3517E-03  0  0.1807E-03
   (  5, 19,  1)  (  5, 13,  6)  (  5, 15,  3)  (  5, 15,  5)  (  5, 13,  4)
  0 -0.1150E-03  0 -0.8183E-04  0  0.6394E-04  0 -0.6003E-04  0  0.3283E-04
   (  5, 15,  2)  (  5, 16,  3)  (  5, 18,  2)  (  5, 17,  2)  (  5, 17,  1)
  0 -0.3599E-04  0 -0.1174E-04  0  0.9637E-05  0 -0.6995E-05  0 -0.5307E-05
   (  5, 15,  1)  (  5, 16,  5)  (  5, 15,  4)  (  5,  8,  1)  (  5, 18,  1)
  0  0.4121E-05  0 -0.2272E-05  0 -0.1823E-05  0  0.1021E-05  0 -0.8358E-06
   (  5, 19,  1)  (  5, 16,  4)  (  5,  8,  1)  (  5,  6,  1)  (  5,  6,  1)
  1  0.6860E-04  0  0.8849E-04  0  0.6320E-04  0 -0.4273E-04  0  0.2307E-04
   (  3, 10,  2)  (  3, 10,  2)  (  5, 13,  1)  (  5, 14,  1)  (  5, 17,  2)
  0 -0.2027E-04  0  0.1265E-04  0 -0.1228E-04  0  0.7177E-05  0 -0.4066E-05
   (  5, 17,  1)  (  5, 19,  1)  (  5, 19,  1)  (  5, 20,  1)  (  5, 14,  3)
  0  0.2569E-05  0 -0.1461E-05  0  0.1287E-05  0  0.1004E-05  0  0.6201E-06
   (  5, 13,  3)  (  5, 15,  5)  (  5, 13,  5)  (  5, 15,  4)  (  5, 12,  7)
  1 -0.3448E-06
   (  5, 12,  7)

 MAXIMUM RESIDUAL FOR EACH ITERATION (1 INDICATES THE FIRST INNER ITERATION):

    RESIDUAL       RESIDUAL       RESIDUAL       RESIDUAL       RESIDUAL    
   LAYER,ROW,COL  LAYER,ROW,COL  LAYER,ROW,COL  LAYER,ROW,COL  LAYER,ROW,COL
 ---------------------------------------------------------------------------
  1  0.6432E-03  0  0.5181E-03  0  0.3728E-03  0  0.2477E-03  0  0.1531E-03
   (  3, 17, 17)  (  3, 17, 17)  (  3, 17, 17)  (  3, 17, 17)  (  3, 17, 17)
  0  0.8762E-04  0  0.4627E-04  0 -0.3300E-04  0 -0.2753E-04  0 -0.2004E-04
   (  3, 20, 11)  (  3, 20, 11)  (  4, 21,  2)  (  4, 21,  2)  (  4, 21,  2)
  0 -0.1390E-04  0  0.9408E-05  0  0.6579E-05  0 -0.4456E-05  0 -0.3343E-05
   (  4, 21,  2)  (  4, 16, 17)  (  4, 16, 17)  (  3, 21,  6)  (  3, 21,  6)
  0 -0.2362E-05  0 -0.1654E-05  0 -0.1096E-05  0 -0.6600E-06  0 -0.4219E-06
   (  3, 21,  6)  (  3, 21,  6)  (  3, 21,  6)  (  3, 21,  6)  (  3, 21,  6)
  0 -0.2592E-06  0 -0.1389E-06  0  0.9742E-07  0  0.6717E-07  0  0.4936E-07
   (  3, 21,  6)  (  3, 21,  5)  (  5, 15, 17)  (  5, 15, 17)  (  5, 15, 17)
  0  0.3483E-07  0  0.2064E-07  0  0.1319E-07  0  0.1057E-07  0  0.8253E-08
   (  5, 15, 17)  (  5, 15, 17)  (  3, 21,  6)  (  3, 21,  6)  (  3, 21,  6)
  1 -0.9831E-06  0 -0.5996E-06  0 -0.3288E-06  0  0.2735E-06  0  0.1902E-06
   (  3, 10,  2)  (  3, 10,  2)  (  3, 10,  2)  (  4, 17,  3)  (  4, 17,  3)
  0  0.1610E-06  0  0.1130E-06  0  0.5878E-07  0  0.4144E-07  0  0.3291E-07
   (  4, 17,  3)  (  4, 17,  3)  (  4, 17,  3)  (  4, 20,  2)  (  4, 20,  2)
  0 -0.2417E-07  0 -0.1757E-07  0 -0.1304E-07  0 -0.7583E-08  0 -0.5494E-08
   (  4, 17,  2)  (  4, 10,  1)  (  4,  9,  2)  (  4, 20,  3)  (  4, 20,  3)
  1 -0.4452E-08
   (  4, 20,  3)



 OUTPUT CONTROL FOR STRESS PERIOD   63   TIME STEP    1
    SAVE HEAD FOR ALL LAYERS
    SAVE DRAWDOWN FOR ALL LAYERS
    SAVE BUDGET
    PRINT BUDGET
 UBDSV1 SAVING "         STORAGE" ON UNIT   9 AT TIME STEP  1, STRESS PERIOD  63
 UBDSV2 SAVING "   CONSTANT HEAD" ON UNIT   9 AT TIME STEP  1, STRESS PERIOD  63
 UBDSV1 SAVING "FLOW RIGHT FACE " ON UNIT   9 AT TIME STEP  1, STRESS PERIOD  63
 UBDSV1 SAVING "FLOW FRONT FACE " ON UNIT   9 AT TIME STEP  1, STRESS PERIOD  63
 UBDSV1 SAVING "FLOW LOWER FACE " ON UNIT   9 AT TIME STEP  1, STRESS PERIOD  63
 UBDSV3 SAVING "        RECHARGE" ON UNIT   9 AT TIME STEP  1, STRESS PERIOD  63

 HEAD WILL BE SAVED ON UNIT   37 AT END OF TIME STEP    1, STRESS PERIOD   63

 DRAWDOWN WILL BE SAVED ON UNIT   38 AT END OF TIME STEP    1, STRESS PERIOD   63
1
  VOLUMETRIC BUDGET FOR ENTIRE MODEL AT END OF TIME STEP    1, STRESS PERIOD  63
  ------------------------------------------------------------------------------

     CUMULATIVE VOLUMES      L**3       RATES FOR THIS TIME STEP      L**3/T
     ------------------                 ------------------------

           IN:                                      IN:
           ---                                      ---
             STORAGE =       10268.0732               STORAGE =       7.6215E-04
       CONSTANT HEAD =       16468.3438         CONSTANT HEAD =       1.8789E-03
            RECHARGE =         684.5365              RECHARGE =       9.7813E-05

            TOTAL IN =       27420.9551              TOTAL IN =       2.7388E-03

          OUT:                                     OUT:
          ----                                     ----
             STORAGE =        5108.9258               STORAGE =           0.0000
       CONSTANT HEAD =       22312.7129         CONSTANT HEAD =       2.7389E-03
            RECHARGE =           0.0000              RECHARGE =           0.0000

           TOTAL OUT =       27421.6387             TOTAL OUT =       2.7389E-03

            IN - OUT =          -0.6836              IN - OUT =      -8.8708E-08

 PERCENT DISCREPANCY =          -0.00     PERCENT DISCREPANCY =          -0.00






         TIME SUMMARY AT END OF TIME STEP    1 IN STRESS PERIOD   63
                    SECONDS     MINUTES      HOURS       DAYS        YEARS
                    -----------------------------------------------------------
   TIME STEP LENGTH  86400.      1440.0      24.000      1.0000     2.73785E-03
 STRESS PERIOD TIME  86400.      1440.0      24.000      1.0000     2.73785E-03
         TOTAL TIME 6.99840E+06 1.16640E+05  1944.0      81.000     0.22177    
1

 SOLVING FOR HEAD 
     3 CALLS TO PCG ROUTINE FOR TIME STEP   2 IN STRESS PERIOD   63
    42 TOTAL ITERATIONS

 MAXIMUM HEAD CHANGE FOR EACH ITERATION (1 INDICATES THE FIRST INNER ITERATION):

    HEAD CHANGE    HEAD CHANGE    HEAD CHANGE    HEAD CHANGE    HEAD CHANGE 
   LAYER,ROW,COL  LAYER,ROW,COL  LAYER,ROW,COL  LAYER,ROW,COL  LAYER,ROW,COL
 ---------------------------------------------------------------------------
  1 -0.4165E-01  0  0.3345E-01  0 -0.2704E-01  0  0.1895E-01  0 -0.1274E-01
   (  5, 21,  2)  (  5, 20,  1)  (  5, 18,  1)  (  5, 17,  1)  (  5, 15,  1)
  0  0.7160E-02  0 -0.5953E-02  0 -0.2585E-02  0 -0.1653E-02  0  0.1043E-02
   (  5, 19,  1)  (  5, 18,  1)  (  5, 19,  1)  (  5, 11,  2)  (  5, 16,  3)
  0  0.8202E-03  0 -0.6094E-03  0  0.5535E-03  0 -0.2781E-03  0  0.1555E-03
   (  5, 19,  1)  (  5, 16,  3)  (  5, 15,  3)  (  5, 15,  4)  (  5, 14,  5)
  0  0.1090E-03  0 -0.7826E-04  0  0.4995E-04  0 -0.4396E-04  0  0.2299E-04
   (  5, 17,  2)  (  5, 16,  3)  (  5, 18,  2)  (  5, 17,  2)  (  5, 16,  2)
  0 -0.2659E-04  0  0.1206E-04  0  0.7205E-05  0 -0.6982E-05  0  0.3499E-05
   (  5, 16,  1)  (  5, 17,  2)  (  5,  7,  1)  (  5,  7,  1)  (  5, 19,  1)
  0 -0.3410E-05  0  0.2152E-05  0 -0.1258E-05  0 -0.1089E-05  0  0.7143E-06
   (  5, 18,  1)  (  5, 19,  2)  (  5,  8,  1)  (  5,  6,  1)  (  5,  6,  1)
  1 -0.1714E-04  0 -0.2709E-04  0  0.2171E-04  0 -0.1859E-04  0  0.1535E-04
   (  2,  8,  5)  (  5, 14,  1)  (  5, 14,  1)  (  5, 19,  1)  (  5, 18,  1)
  0 -0.5343E-05  0  0.2713E-05  0 -0.2318E-05  0  0.1589E-05  0 -0.1821E-05
   (  5, 17,  1)  (  5, 13,  3)  (  5, 19,  1)  (  5, 21,  1)  (  5, 20,  1)
  0  0.8162E-06  1 -0.4342E-06
   (  5, 19,  1)  (  5, 19,  1)

 MAXIMUM RESIDUAL FOR EACH ITERATION (1 INDICATES THE FIRST INNER ITERATION):

    RESIDUAL       RESIDUAL       RESIDUAL       RESIDUAL       RESIDUAL    
   LAYER,ROW,COL  LAYER,ROW,COL  LAYER,ROW,COL  LAYER,ROW,COL  LAYER,ROW,COL
 ---------------------------------------------------------------------------
  1  0.6272E-03  0  0.4893E-03  0  0.3389E-03  0  0.2197E-03  0  0.1343E-03
   (  3, 17, 17)  (  3, 17, 17)  (  3, 17, 17)  (  3, 17, 17)  (  3, 17, 17)
  0  0.7701E-04  0  0.4079E-04  0 -0.3105E-04  0 -0.2512E-04  0 -0.1769E-04
   (  3, 20, 11)  (  3, 20, 11)  (  4, 21,  2)  (  4, 21,  2)  (  4, 21,  2)
  0  0.1270E-04  0  0.8738E-05  0  0.5958E-05  0 -0.3982E-05  0 -0.2945E-05
   (  4, 16, 17)  (  4, 16, 17)  (  4, 16, 17)  (  3, 21,  6)  (  3, 21,  6)
  0 -0.2061E-05  0 -0.1417E-05  0 -0.8954E-06  0 -0.5153E-06  0 -0.2689E-06
   (  3, 21,  6)  (  3, 21,  6)  (  3, 21,  6)  (  3, 21,  6)  (  3, 21,  6)
  0 -0.1814E-06  0  0.1118E-06  0  0.7798E-07  0  0.5349E-07  0  0.3547E-07
   (  3, 21,  6)  (  5, 15, 17)  (  5, 15, 17)  (  5, 15, 17)  (  5, 15, 17)
  0  0.2636E-07  0  0.1628E-07  0  0.1162E-07  0  0.9126E-08  0  0.6714E-08
   (  5, 15, 17)  (  5, 16, 17)  (  3, 21,  6)  (  3, 21,  6)  (  3, 21,  6)
  1  0.1984E-06  0  0.1121E-06  0 -0.1010E-06  0 -0.6264E-07  0 -0.5136E-07
   (  3, 21,  1)  (  3, 21,  1)  (  4, 21,  2)  (  4, 21,  2)  (  4, 21,  2)
  0 -0.3056E-07  0 -0.2535E-07  0 -0.2050E-07  0 -0.1485E-07  0 -0.9007E-08
   (  4, 21,  2)  (  3, 21,  2)  (  3, 21,  2)  (  3, 21,  2)  (  3, 21,  2)
  0 -0.4431E-08  1 -0.3942E-08
   (  3, 21,  2)  (  3,  8,  5)



 OUTPUT CONTROL FOR STRESS PERIOD   63   TIME STEP    2
    SAVE HEAD FOR ALL LAYERS
    SAVE DRAWDOWN FOR ALL LAYERS
    SAVE BUDGET
    PRINT BUDGET
 UBDSV1 SAVING "         STORAGE" ON UNIT   9 AT TIME STEP  2, STRESS PERIOD  63
 UBDSV2 SAVING "   CONSTANT HEAD" ON UNIT   9 AT TIME STEP  2, STRESS PERIOD  63
 UBDSV1 SAVING "FLOW RIGHT FACE " ON UNIT   9 AT TIME STEP  2, STRESS PERIOD  63
 UBDSV1 SAVING "FLOW FRONT FACE " ON UNIT   9 AT TIME STEP  2, STRESS PERIOD  63
 UBDSV1 SAVING "FLOW LOWER FACE " ON UNIT   9 AT TIME STEP  2, STRESS PERIOD  63
 UBDSV3 SAVING "        RECHARGE" ON UNIT   9 AT TIME STEP  2, STRESS PERIOD  63

 HEAD WILL BE SAVED ON UNIT   37 AT END OF TIME STEP    2, STRESS PERIOD   63

 DRAWDOWN WILL BE SAVED ON UNIT   38 AT END OF TIME STEP    2, STRESS PERIOD   63
1
  VOLUMETRIC BUDGET FOR ENTIRE MODEL AT END OF TIME STEP    2, STRESS PERIOD  63
  ------------------------------------------------------------------------------

     CUMULATIVE VOLUMES      L**3       RATES FOR THIS TIME STEP      L**3/T
     ------------------                 ------------------------

           IN:                                      IN:
           ---                                      ---
             STORAGE =       10324.0381               STORAGE =       6.4774E-04
       CONSTANT HEAD =       16632.5078         CONSTANT HEAD =       1.9000E-03
            RECHARGE =         692.9875              RECHARGE =       9.7813E-05

            TOTAL IN =       27649.5352              TOTAL IN =       2.6456E-03

          OUT:                                     OUT:
          ----                                     ----
             STORAGE =        5108.9258               STORAGE =           0.0000
       CONSTANT HEAD =       22541.3027         CONSTANT HEAD =       2.6457E-03
            RECHARGE =           0.0000              RECHARGE =           0.0000

           TOTAL OUT =       27650.2285             TOTAL OUT =       2.6457E-03

            IN - OUT =          -0.6934              IN - OUT =      -1.0733E-07

 PERCENT DISCREPANCY =          -0.00     PERCENT DISCREPANCY =          -0.00






         TIME SUMMARY AT END OF TIME STEP    2 IN STRESS PERIOD   63
                    SECONDS     MINUTES      HOURS       DAYS        YEARS
                    -----------------------------------------------------------
   TIME STEP LENGTH  86400.      1440.0      24.000      1.0000     2.73785E-03
 STRESS PERIOD TIME 1.72800E+05  2880.0      48.000      2.0000     5.47570E-03
         TOTAL TIME 7.08480E+06 1.18080E+05  1968.0      82.000     0.22450    
1

 SOLVING FOR HEAD 
     3 CALLS TO PCG ROUTINE FOR TIME STEP   3 IN STRESS PERIOD   63
    41 TOTAL ITERATIONS

 MAXIMUM HEAD CHANGE FOR EACH ITERATION (1 INDICATES THE FIRST INNER ITERATION):

    HEAD CHANGE    HEAD CHANGE    HEAD CHANGE    HEAD CHANGE    HEAD CHANGE 
   LAYER,ROW,COL  LAYER,ROW,COL  LAYER,ROW,COL  LAYER,ROW,COL  LAYER,ROW,COL
 ---------------------------------------------------------------------------
  1 -0.4103E-01  0  0.3302E-01  0 -0.2646E-01  0  0.1890E-01  0 -0.1238E-01
   (  5, 21,  2)  (  5, 20,  1)  (  5, 18,  1)  (  5, 17,  1)  (  5, 15,  1)
  0  0.7146E-02  0 -0.5866E-02  0 -0.2605E-02  0 -0.1634E-02  0 -0.1026E-02
   (  5, 19,  1)  (  5, 18,  1)  (  5, 19,  1)  (  5, 11,  2)  (  5, 14,  4)
  0  0.8470E-03  0 -0.6199E-03  0  0.5306E-03  0 -0.2676E-03  0  0.1484E-03
   (  5, 19,  1)  (  5, 16,  3)  (  5, 15,  3)  (  5, 15,  4)  (  5, 14,  5)
  0  0.9883E-04  0 -0.6664E-04  0  0.4895E-04  0 -0.4287E-04  0  0.2373E-04
   (  5, 17,  2)  (  5, 16,  3)  (  5, 18,  2)  (  5, 17,  2)  (  5, 16,  2)
  0 -0.2614E-04  0  0.1137E-04  0 -0.8839E-05  0  0.7208E-05  0 -0.3607E-05
   (  5, 16,  1)  (  5, 17,  2)  (  5, 19,  2)  (  5, 18,  1)  (  5, 18,  1)
  0  0.3095E-05  0 -0.1340E-05  0 -0.1232E-05  0 -0.8066E-06  1 -0.1711E-04
   (  5,  7,  1)  (  5,  7,  1)  (  5,  8,  1)  (  5,  6,  1)  (  2,  8,  5)
  0 -0.2651E-04  0  0.1941E-04  0 -0.1815E-04  0  0.1387E-04  0 -0.5400E-05
   (  5, 14,  1)  (  5, 15,  1)  (  5, 19,  1)  (  5, 18,  1)  (  5, 17,  1)
  0  0.2921E-05  0 -0.3075E-05  0  0.1739E-05  0 -0.1107E-05  0  0.6413E-06
   (  5, 13,  3)  (  5, 19,  1)  (  5, 20,  1)  (  5, 20,  1)  (  5,  9,  1)
  1  0.6659E-06
   (  5, 20,  1)

 MAXIMUM RESIDUAL FOR EACH ITERATION (1 INDICATES THE FIRST INNER ITERATION):

    RESIDUAL       RESIDUAL       RESIDUAL       RESIDUAL       RESIDUAL    
   LAYER,ROW,COL  LAYER,ROW,COL  LAYER,ROW,COL  LAYER,ROW,COL  LAYER,ROW,COL
 ---------------------------------------------------------------------------
  1  0.6266E-03  0  0.4857E-03  0  0.3329E-03  0  0.2135E-03  0  0.1306E-03
   (  3, 17, 17)  (  3, 17, 17)  (  3, 17, 17)  (  3, 17, 17)  (  3, 17, 17)
  0  0.7596E-04  0  0.4071E-04  0 -0.3069E-04  0 -0.2477E-04  0  0.1744E-04
   (  3, 20, 11)  (  3, 20, 11)  (  4, 21,  2)  (  4, 21,  2)  (  4, 16, 17)
  0  0.1267E-04  0  0.8602E-05  0  0.5791E-05  0 -0.3839E-05  0 -0.2834E-05
   (  4, 16, 17)  (  4, 16, 17)  (  4, 16, 17)  (  3, 21,  6)  (  3, 21,  6)
  0 -0.1984E-05  0 -0.1354E-05  0 -0.8491E-06  0 -0.4874E-06  0 -0.2649E-06
   (  3, 21,  6)  (  3, 21,  6)  (  3, 21,  6)  (  3, 21,  6)  (  3, 21,  6)
  0 -0.1731E-06  0  0.1068E-06  0  0.7689E-07  0  0.5940E-07  0  0.4153E-07
   (  3, 21,  6)  (  5, 15, 17)  (  5, 15, 17)  (  5, 15, 17)  (  5, 15, 17)
  0  0.2646E-07  0  0.1559E-07  0  0.1103E-07  0  0.8574E-08  1  0.1895E-06
   (  5, 15, 17)  (  5, 15, 17)  (  3, 21,  6)  (  3, 21,  6)  (  3, 21,  1)
  0  0.1099E-06  0 -0.9622E-07  0 -0.5886E-07  0 -0.4679E-07  0 -0.2900E-07
   (  3, 21,  1)  (  4, 21,  2)  (  4, 21,  2)  (  4, 21,  2)  (  4, 21,  2)
  0 -0.2345E-07  0 -0.1895E-07  0 -0.1463E-07  0 -0.9362E-08  0 -0.4806E-08
   (  4, 21,  2)  (  3, 21,  2)  (  3, 21,  2)  (  3, 21,  2)  (  3, 21,  2)
  1 -0.4245E-08
   (  3, 21,  2)



 OUTPUT CONTROL FOR STRESS PERIOD   63   TIME STEP    3
    SAVE HEAD FOR ALL LAYERS
    SAVE DRAWDOWN FOR ALL LAYERS
    SAVE BUDGET
    PRINT BUDGET
 UBDSV1 SAVING "         STORAGE" ON UNIT   9 AT TIME STEP  3, STRESS PERIOD  63
 UBDSV2 SAVING "   CONSTANT HEAD" ON UNIT   9 AT TIME STEP  3, STRESS PERIOD  63
 UBDSV1 SAVING "FLOW RIGHT FACE " ON UNIT   9 AT TIME STEP  3, STRESS PERIOD  63
 UBDSV1 SAVING "FLOW FRONT FACE " ON UNIT   9 AT TIME STEP  3, STRESS PERIOD  63
 UBDSV1 SAVING "FLOW LOWER FACE " ON UNIT   9 AT TIME STEP  3, STRESS PERIOD  63
 UBDSV3 SAVING "        RECHARGE" ON UNIT   9 AT TIME STEP  3, STRESS PERIOD  63

 HEAD WILL BE SAVED ON UNIT   37 AT END OF TIME STEP    3, STRESS PERIOD   63

 DRAWDOWN WILL BE SAVED ON UNIT   38 AT END OF TIME STEP    3, STRESS PERIOD   63
1
  VOLUMETRIC BUDGET FOR ENTIRE MODEL AT END OF TIME STEP    3, STRESS PERIOD  63
  ------------------------------------------------------------------------------

     CUMULATIVE VOLUMES      L**3       RATES FOR THIS TIME STEP      L**3/T
     ------------------                 ------------------------

           IN:                                      IN:
           ---                                      ---
             STORAGE =       10376.8760               STORAGE =       6.1155E-04
       CONSTANT HEAD =       16796.5371         CONSTANT HEAD =       1.8985E-03
            RECHARGE =         701.4386              RECHARGE =       9.7813E-05

            TOTAL IN =       27874.8535              TOTAL IN =       2.6078E-03

          OUT:                                     OUT:
          ----                                     ----
             STORAGE =        5108.9258               STORAGE =           0.0000
       CONSTANT HEAD =       22766.6289         CONSTANT HEAD =       2.6079E-03
            RECHARGE =           0.0000              RECHARGE =           0.0000

           TOTAL OUT =       27875.5547             TOTAL OUT =       2.6079E-03

            IN - OUT =          -0.7012              IN - OUT =      -1.0454E-07

 PERCENT DISCREPANCY =          -0.00     PERCENT DISCREPANCY =          -0.00






         TIME SUMMARY AT END OF TIME STEP    3 IN STRESS PERIOD   63
                    SECONDS     MINUTES      HOURS       DAYS        YEARS
                    -----------------------------------------------------------
   TIME STEP LENGTH  86400.      1440.0      24.000      1.0000     2.73785E-03
 STRESS PERIOD TIME 2.59200E+05  4320.0      72.000      3.0000     8.21355E-03
         TOTAL TIME 7.17120E+06 1.19520E+05  1992.0      83.000     0.22724    
1

 SOLVING FOR HEAD 
     3 CALLS TO PCG ROUTINE FOR TIME STEP   4 IN STRESS PERIOD   63
    44 TOTAL ITERATIONS

 MAXIMUM HEAD CHANGE FOR EACH ITERATION (1 INDICATES THE FIRST INNER ITERATION):

    HEAD CHANGE    HEAD CHANGE    HEAD CHANGE    HEAD CHANGE    HEAD CHANGE 
   LAYER,ROW,COL  LAYER,ROW,COL  LAYER,ROW,COL  LAYER,ROW,COL  LAYER,ROW,COL
 ---------------------------------------------------------------------------
  1 -0.4080E-01  0  0.3283E-01  0 -0.2620E-01  0  0.1882E-01  0 -0.1225E-01
   (  5, 21,  2)  (  5, 20,  1)  (  5, 18,  1)  (  5, 17,  1)  (  5, 15,  1)
  0  0.7124E-02  0 -0.5924E-02  0 -0.2548E-02  0 -0.1628E-02  0 -0.1032E-02
   (  5, 19,  1)  (  5, 18,  1)  (  5, 19,  1)  (  5, 11,  2)  (  5, 14,  4)
  0  0.8364E-03  0 -0.6185E-03  0  0.5282E-03  0 -0.2658E-03  0  0.1481E-03
   (  5, 19,  1)  (  5, 16,  3)  (  5, 15,  3)  (  5, 15,  4)  (  5, 14,  5)
  0  0.9839E-04  0 -0.6655E-04  0  0.4755E-04  0 -0.4102E-04  0  0.2198E-04
   (  5, 17,  2)  (  5, 16,  3)  (  5, 18,  2)  (  5, 17,  2)  (  5, 16,  2)
  0 -0.2373E-04  0  0.1234E-04  0 -0.1012E-04  0  0.8223E-05  0 -0.4039E-05
   (  5, 16,  1)  (  5, 17,  2)  (  5, 19,  2)  (  5, 18,  1)  (  5,  7,  1)
  0  0.3184E-05  0 -0.1352E-05  0 -0.1192E-05  0 -0.7790E-06  1  0.7958E-04
   (  5,  7,  1)  (  5,  7,  1)  (  5,  8,  1)  (  5,  6,  1)  (  5, 18,  3)
  0  0.4869E-04  0  0.6613E-04  0 -0.3054E-04  0  0.2138E-04  0  0.1568E-04
   (  3, 18,  3)  (  5, 17,  1)  (  5, 15,  1)  (  5, 13,  1)  (  5, 20,  1)
  0 -0.1260E-04  0 -0.9209E-05  0 -0.3920E-05  0 -0.2922E-05  0  0.2071E-05
   (  5, 20,  2)  (  5, 15,  1)  (  5, 11,  2)  (  5, 15,  3)  (  5, 14,  3)
  0 -0.1482E-05  0  0.1073E-05  0 -0.5340E-06  1  0.4035E-06
   (  5, 14,  4)  (  5, 13,  5)  (  5, 15,  6)  (  5, 14,  6)

 MAXIMUM RESIDUAL FOR EACH ITERATION (1 INDICATES THE FIRST INNER ITERATION):

    RESIDUAL       RESIDUAL       RESIDUAL       RESIDUAL       RESIDUAL    
   LAYER,ROW,COL  LAYER,ROW,COL  LAYER,ROW,COL  LAYER,ROW,COL  LAYER,ROW,COL
 ---------------------------------------------------------------------------
  1  0.6273E-03  0  0.4856E-03  0  0.3315E-03  0  0.2115E-03  0  0.1292E-03
   (  3, 17, 17)  (  3, 17, 17)  (  3, 17, 17)  (  3, 17, 17)  (  3, 17, 17)
  0  0.7579E-04  0  0.4073E-04  0  0.3076E-04  0 -0.2464E-04  0  0.1751E-04
   (  3, 20, 11)  (  3, 20, 11)  (  4, 16, 17)  (  4, 21,  2)  (  4, 16, 17)
  0  0.1270E-04  0  0.8607E-05  0  0.5784E-05  0 -0.3818E-05  0 -0.2821E-05
   (  4, 16, 17)  (  4, 16, 17)  (  4, 16, 17)  (  3, 21,  6)  (  3, 21,  6)
  0 -0.1975E-05  0 -0.1348E-05  0 -0.8445E-06  0 -0.4837E-06  0 -0.2504E-06
   (  3, 21,  6)  (  3, 21,  6)  (  3, 21,  6)  (  3, 21,  6)  (  3, 21,  6)
  0 -0.1678E-06  0  0.1063E-06  0  0.8030E-07  0  0.6080E-07  0  0.4140E-07
   (  3, 21,  5)  (  5, 15, 17)  (  5, 15, 17)  (  5, 15, 17)  (  5, 15, 17)
  0  0.2634E-07  0  0.1551E-07  0  0.1086E-07  0  0.8486E-08  1 -0.1384E-05
   (  5, 15, 17)  (  5, 15, 17)  (  3, 21,  6)  (  3, 21,  6)  (  3, 18,  3)
  0 -0.7839E-06  0  0.4512E-06  0  0.3422E-06  0  0.2665E-06  0  0.1844E-06
   (  3, 18,  3)  (  4, 18,  3)  (  4, 18,  3)  (  4, 18,  3)  (  4, 18,  3)
  0  0.1277E-06  0 -0.6152E-07  0 -0.5783E-07  0 -0.4269E-07  0 -0.3334E-07
   (  4, 18,  3)  (  4, 17,  3)  (  4, 17,  3)  (  4, 17,  3)  (  4, 18,  2)
  0 -0.2358E-07  0 -0.1270E-07  0  0.8480E-08  1  0.6822E-08
   (  4, 18,  2)  (  4, 18,  2)  (  4, 17,  4)  (  4, 17,  4)



 OUTPUT CONTROL FOR STRESS PERIOD   63   TIME STEP    4
    SAVE HEAD FOR ALL LAYERS
    SAVE DRAWDOWN FOR ALL LAYERS
    SAVE BUDGET
    PRINT BUDGET
 UBDSV1 SAVING "         STORAGE" ON UNIT   9 AT TIME STEP  4, STRESS PERIOD  63
 UBDSV2 SAVING "   CONSTANT HEAD" ON UNIT   9 AT TIME STEP  4, STRESS PERIOD  63
 UBDSV1 SAVING "FLOW RIGHT FACE " ON UNIT   9 AT TIME STEP  4, STRESS PERIOD  63
 UBDSV1 SAVING "FLOW FRONT FACE " ON UNIT   9 AT TIME STEP  4, STRESS PERIOD  63
 UBDSV1 SAVING "FLOW LOWER FACE " ON UNIT   9 AT TIME STEP  4, STRESS PERIOD  63
 UBDSV3 SAVING "        RECHARGE" ON UNIT   9 AT TIME STEP  4, STRESS PERIOD  63

 HEAD WILL BE SAVED ON UNIT   37 AT END OF TIME STEP    4, STRESS PERIOD   63

 DRAWDOWN WILL BE SAVED ON UNIT   38 AT END OF TIME STEP    4, STRESS PERIOD   63
1
  VOLUMETRIC BUDGET FOR ENTIRE MODEL AT END OF TIME STEP    4, STRESS PERIOD  63
  ------------------------------------------------------------------------------

     CUMULATIVE VOLUMES      L**3       RATES FOR THIS TIME STEP      L**3/T
     ------------------                 ------------------------

           IN:                                      IN:
           ---                                      ---
             STORAGE =       10428.7900               STORAGE =       6.0085E-04
       CONSTANT HEAD =       16959.6406         CONSTANT HEAD =       1.8878E-03
            RECHARGE =         709.8896              RECHARGE =       9.7813E-05

            TOTAL IN =       28098.3203              TOTAL IN =       2.5864E-03

          OUT:                                     OUT:
          ----                                     ----
             STORAGE =        5108.9258               STORAGE =           0.0000
       CONSTANT HEAD =       22990.1016         CONSTANT HEAD =       2.5865E-03
            RECHARGE =           0.0000              RECHARGE =           0.0000

           TOTAL OUT =       28099.0273             TOTAL OUT =       2.5865E-03

            IN - OUT =          -0.7070              IN - OUT =      -6.2399E-08

 PERCENT DISCREPANCY =          -0.00     PERCENT DISCREPANCY =          -0.00






         TIME SUMMARY AT END OF TIME STEP    4 IN STRESS PERIOD   63
                    SECONDS     MINUTES      HOURS       DAYS        YEARS
                    -----------------------------------------------------------
   TIME STEP LENGTH  86400.      1440.0      24.000      1.0000     2.73785E-03
 STRESS PERIOD TIME 3.45600E+05  5760.0      96.000      4.0000     1.09514E-02
         TOTAL TIME 7.25760E+06 1.20960E+05  2016.0      84.000     0.22998    
1
1
                            STRESS PERIOD NO.   64, LENGTH =   86400.00    
                            -----------------------------------------------

                              NUMBER OF TIME STEPS =     1

                               MULTIPLIER FOR DELT =     1.000

                            INITIAL TIME STEP SIZE =   86400.00    

 REUSING RECH FROM LAST STRESS PERIOD

 CHD NO.   LAYER   ROW   COL    START HEAD        END HEAD         IFACE           
 ----------------------------------------------------------------------------------
      1      4      1      1       109.4           109.4           0.000    
      2      5      1      1       109.4           109.4           0.000    
      3      4      1      2       109.4           109.4           0.000    
      4      5      1      2       109.4           109.4           0.000    
      5      4      1      3       109.4           109.4           0.000    
      6      5      1      3       109.4           109.4           0.000    
      7      4      1      4       109.4           109.4           0.000    
      8      5      1      4       109.4           109.4           0.000    
      9      4      1      5       109.4           109.4           0.000    
     10      5      1      5       109.4           109.4           0.000    
     11      4      1      6       109.4           109.4           0.000    
     12      5      1      6       109.4           109.4           0.000    
     13      4      1      7       109.4           109.4           0.000    
     14      5      1      7       109.4           109.4           0.000    
     15      4      1      8       109.4           109.4           0.000    
     16      5      1      8       109.4           109.4           0.000    
     17      4      1      9       109.4           109.4           0.000    
     18      5      1      9       109.4           109.4           0.000    
     19      4      1     10       109.4           109.4           0.000    
     20      5      1     10       109.4           109.4           0.000    
     21      4      1     11       109.4           109.4           0.000    
     22      5      1     11       109.4           109.4           0.000    
     23      4      1     12       109.4           109.4           0.000    
     24      5      1     12       109.4           109.4           0.000    
     25      4      1     13       109.4           109.4           0.000    
     26      5      1     13       109.4           109.4           0.000    
     27      4      1     14       109.4           109.4           0.000    
     28      5      1     14       109.4           109.4           0.000    
     29      4      1     15       109.4           109.4           0.000    
     30      5      1     15       109.4           109.4           0.000    
     31      4      1     16       109.4           109.4           0.000    
     32      5      1     16       109.4           109.4           0.000    
     33      4      1     17       109.4           109.4           0.000    
     34      5      1     17       109.4           109.4           0.000    
     35      4     17     17       109.2           109.3           0.000    
     36      5     17     17       109.2           109.3           0.000    
     37      4     18     17       109.2           109.3           0.000    
     38      5     18     17       109.2           109.3           0.000    
     39      4     18     16       109.2           109.3           0.000    
     40      5     18     16       109.2           109.3           0.000    
     41      4     19     16       109.2           109.3           0.000    
     42      5     19     16       109.2           109.3           0.000    
     43      4     19     15       109.2           109.2           0.000    
     44      5     19     15       109.2           109.2           0.000    
     45      4     20     15       109.2           109.2           0.000    
     46      5     20     15       109.2           109.2           0.000    
     47      4     20     14       109.2           109.2           0.000    
     48      5     20     14       109.2           109.2           0.000    
     49      4     20     13       109.2           109.2           0.000    
     50      5     20     13       109.2           109.2           0.000    
     51      4     20     12       109.2           109.2           0.000    
     52      5     20     12       109.2           109.2           0.000    
     53      4     20     11       109.2           109.2           0.000    
     54      5     20     11       109.2           109.2           0.000    
     55      4     21     11       109.2           109.2           0.000    
     56      5     21     11       109.2           109.2           0.000    
     57      4     21     10       109.2           109.2           0.000    
     58      5     21     10       109.2           109.2           0.000    
     59      4     21      9       109.2           109.2           0.000    
     60      5     21      9       109.2           109.2           0.000    
     61      4     21      8       109.2           109.2           0.000    
     62      5     21      8       109.2           109.2           0.000    
     63      4     21      7       109.2           109.2           0.000    
     64      5     21      7       109.2           109.2           0.000    
     65      4     21      6       109.2           109.2           0.000    
     66      5     21      6       109.2           109.2           0.000    
     67      4     21      5       109.2           109.2           0.000    
     68      5     21      5       109.2           109.2           0.000    
     69      4     22      5       109.2           109.2           0.000    
     70      5     22      5       109.2           109.2           0.000    
     71      4     22      4       109.2           109.2           0.000    
     72      5     22      4       109.2           109.2           0.000    
     73      4     22      3       109.2           109.2           0.000    
     74      5     22      3       109.2           109.2           0.000    
     75      4     22      2       109.2           109.2           0.000    
     76      5     22      2       109.2           109.2           0.000    
     77      4     22      1       109.2           109.2           0.000    
     78      5     22      1       109.2           109.2           0.000    


     78 TIME-VARIANT SPECIFIED-HEAD CELLS

 SOLVING FOR HEAD 


     3 CALLS TO PCG ROUTINE FOR TIME STEP   1 IN STRESS PERIOD   64
    46 TOTAL ITERATIONS

 MAXIMUM HEAD CHANGE FOR EACH ITERATION (1 INDICATES THE FIRST INNER ITERATION):

    HEAD CHANGE    HEAD CHANGE    HEAD CHANGE    HEAD CHANGE    HEAD CHANGE 
   LAYER,ROW,COL  LAYER,ROW,COL  LAYER,ROW,COL  LAYER,ROW,COL  LAYER,ROW,COL
 ---------------------------------------------------------------------------
  1  0.1641      0 -0.1268      0  0.9468E-01  0  0.6754E-01  0 -0.4716E-01
   (  5, 21,  2)  (  5, 20,  1)  (  5, 19,  1)  (  5, 20,  1)  (  5, 19,  1)
  0  0.2940E-01  0 -0.2166E-01  0  0.1537E-01  0 -0.1038E-01  0  0.4873E-02
   (  5, 18,  1)  (  5, 16,  1)  (  5, 19,  1)  (  5, 18,  1)  (  5, 14,  4)
  0 -0.4218E-02  0  0.2843E-02  0 -0.2195E-02  0 -0.9687E-03  0 -0.6809E-03
   (  5, 19,  1)  (  5, 16,  3)  (  5, 15,  3)  (  5, 18,  1)  (  5, 14,  5)
  0 -0.5083E-03  0  0.3158E-03  0 -0.1725E-03  0  0.1720E-03  0  0.8880E-04
   (  5, 17,  2)  (  5, 16,  3)  (  5, 15,  3)  (  5,  6,  1)  (  5, 15,  1)
  0 -0.8950E-04  0  0.7434E-04  0 -0.2840E-04  0  0.2271E-04  0  0.1617E-04
   (  5, 17,  1)  (  5, 16,  1)  (  5, 15,  1)  (  5, 14,  1)  (  5, 18,  1)
  0 -0.9628E-05  0 -0.6153E-05  0  0.5411E-05  0 -0.3406E-05  0  0.2690E-05
   (  5,  7,  1)  (  5,  8,  2)  (  5,  8,  1)  (  5,  8,  1)  (  5, 19,  1)
  1  0.2086E-03  0  0.1482E-03  0  0.1549E-03  0  0.7365E-04  0  0.6416E-04
   (  5, 18,  3)  (  5, 13,  1)  (  5, 18,  1)  (  5, 17,  3)  (  5, 20,  1)
  0 -0.3896E-04  0  0.3401E-04  0 -0.3001E-04  0 -0.1020E-04  0 -0.9778E-05
   (  5, 18,  1)  (  5, 16,  1)  (  5, 15,  1)  (  5, 10,  1)  (  5, 15,  3)
  0 -0.6168E-05  0  0.4207E-05  0  0.2448E-05  0  0.1813E-05  0 -0.8923E-06
   (  5, 12,  4)  (  5, 12,  5)  (  5, 18,  7)  (  5, 14,  4)  (  5, 18,  1)
  1 -0.7030E-06
   (  5,  7,  1)

 MAXIMUM RESIDUAL FOR EACH ITERATION (1 INDICATES THE FIRST INNER ITERATION):

    RESIDUAL       RESIDUAL       RESIDUAL       RESIDUAL       RESIDUAL    
   LAYER,ROW,COL  LAYER,ROW,COL  LAYER,ROW,COL  LAYER,ROW,COL  LAYER,ROW,COL
 ---------------------------------------------------------------------------
  1 -0.3229E-02  0 -0.2549E-02  0 -0.1758E-02  0 -0.1101E-02  0 -0.6385E-03
   (  3, 17, 17)  (  3, 17, 17)  (  3, 17, 17)  (  3, 17, 17)  (  3, 20, 11)
  0 -0.3765E-03  0 -0.2339E-03  0 -0.1589E-03  0 -0.1270E-03  0 -0.9538E-04
   (  3, 20, 11)  (  3, 20, 11)  (  4, 16, 17)  (  4, 16, 17)  (  4, 16, 17)
  0 -0.7046E-04  0 -0.4864E-04  0 -0.3334E-04  0 -0.2223E-04  0 -0.1486E-04
   (  4, 16, 17)  (  4, 16, 17)  (  4, 16, 17)  (  4, 16, 17)  (  4, 16, 17)
  0 -0.9511E-05  0 -0.6029E-05  0  0.3608E-05  0  0.2120E-05  0  0.1093E-05
   (  4, 16, 17)  (  4, 16, 17)  (  3, 21,  6)  (  3, 21,  6)  (  3, 21,  6)
  0 -0.7100E-06  0 -0.5097E-06  0 -0.3889E-06  0 -0.3148E-06  0 -0.2600E-06
   (  4, 16, 17)  (  3, 17, 17)  (  3, 17, 17)  (  3, 17, 17)  (  3, 17, 17)
  0 -0.1994E-06  0 -0.1408E-06  0 -0.9519E-07  0 -0.6324E-07  0 -0.4698E-07
   (  3, 17, 17)  (  3, 17, 17)  (  3, 17, 17)  (  3, 17, 17)  (  3, 17, 17)
  1 -0.3858E-05  0 -0.2195E-05  0  0.1299E-05  0  0.8704E-06  0  0.5876E-06
   (  3, 18,  3)  (  3, 18,  3)  (  4, 18,  3)  (  4, 18,  3)  (  4, 18,  3)
  0  0.4537E-06  0  0.3077E-06  0 -0.1725E-06  0 -0.1600E-06  0 -0.1265E-06
   (  4, 18,  3)  (  4, 18,  3)  (  4, 18,  2)  (  4, 17,  3)  (  4, 18,  2)
  0 -0.9070E-07  0 -0.5984E-07  0 -0.3280E-07  0  0.2150E-07  0  0.1276E-07
   (  4, 18,  2)  (  4, 18,  2)  (  4, 18,  2)  (  4, 17,  4)  (  4, 17,  2)
  1  0.1099E-07
   (  4, 17,  4)



 OUTPUT CONTROL FOR STRESS PERIOD   64   TIME STEP    1
    SAVE HEAD FOR ALL LAYERS
    SAVE DRAWDOWN FOR ALL LAYERS
    SAVE BUDGET
    PRINT BUDGET
 UBDSV1 SAVING "         STORAGE" ON UNIT   9 AT TIME STEP  1, STRESS PERIOD  64
 UBDSV2 SAVING "   CONSTANT HEAD" ON UNIT   9 AT TIME STEP  1, STRESS PERIOD  64
 UBDSV1 SAVING "FLOW RIGHT FACE " ON UNIT   9 AT TIME STEP  1, STRESS PERIOD  64
 UBDSV1 SAVING "FLOW FRONT FACE " ON UNIT   9 AT TIME STEP  1, STRESS PERIOD  64
 UBDSV1 SAVING "FLOW LOWER FACE " ON UNIT   9 AT TIME STEP  1, STRESS PERIOD  64
 UBDSV3 SAVING "        RECHARGE" ON UNIT   9 AT TIME STEP  1, STRESS PERIOD  64

 HEAD WILL BE SAVED ON UNIT   37 AT END OF TIME STEP    1, STRESS PERIOD   64

 DRAWDOWN WILL BE SAVED ON UNIT   38 AT END OF TIME STEP    1, STRESS PERIOD   64
1
  VOLUMETRIC BUDGET FOR ENTIRE MODEL AT END OF TIME STEP    1, STRESS PERIOD  64
  ------------------------------------------------------------------------------

     CUMULATIVE VOLUMES      L**3       RATES FOR THIS TIME STEP      L**3/T
     ------------------                 ------------------------

           IN:                                      IN:
           ---                                      ---
             STORAGE =       10428.7900               STORAGE =           0.0000
       CONSTANT HEAD =       17133.3984         CONSTANT HEAD =       2.0111E-03
            RECHARGE =         718.3407              RECHARGE =       9.7813E-05

            TOTAL IN =       28280.5273              TOTAL IN =       2.1089E-03

          OUT:                                     OUT:
          ----                                     ----
             STORAGE =        5208.3643               STORAGE =       1.1509E-03
       CONSTANT HEAD =       23072.8789         CONSTANT HEAD =       9.5808E-04
            RECHARGE =           0.0000              RECHARGE =           0.0000

           TOTAL OUT =       28281.2422             TOTAL OUT =       2.1090E-03

            IN - OUT =          -0.7148              IN - OUT =      -8.8941E-08

 PERCENT DISCREPANCY =          -0.00     PERCENT DISCREPANCY =          -0.00






         TIME SUMMARY AT END OF TIME STEP    1 IN STRESS PERIOD   64
                    SECONDS     MINUTES      HOURS       DAYS        YEARS
                    -----------------------------------------------------------
   TIME STEP LENGTH  86400.      1440.0      24.000      1.0000     2.73785E-03
 STRESS PERIOD TIME  86400.      1440.0      24.000      1.0000     2.73785E-03
         TOTAL TIME 7.34400E+06 1.22400E+05  2040.0      85.000     0.23272    
1
1
                            STRESS PERIOD NO.   65, LENGTH =   86400.00    
                            -----------------------------------------------

                              NUMBER OF TIME STEPS =     1

                               MULTIPLIER FOR DELT =     1.000

                            INITIAL TIME STEP SIZE =   86400.00    

 REUSING RECH FROM LAST STRESS PERIOD

 CHD NO.   LAYER   ROW   COL    START HEAD        END HEAD         IFACE           
 ----------------------------------------------------------------------------------
      1      4      1      1       109.4           109.4           0.000    
      2      5      1      1       109.4           109.4           0.000    
      3      4      1      2       109.4           109.4           0.000    
      4      5      1      2       109.4           109.4           0.000    
      5      4      1      3       109.4           109.4           0.000    
      6      5      1      3       109.4           109.4           0.000    
      7      4      1      4       109.4           109.4           0.000    
      8      5      1      4       109.4           109.4           0.000    
      9      4      1      5       109.4           109.4           0.000    
     10      5      1      5       109.4           109.4           0.000    
     11      4      1      6       109.4           109.4           0.000    
     12      5      1      6       109.4           109.4           0.000    
     13      4      1      7       109.4           109.4           0.000    
     14      5      1      7       109.4           109.4           0.000    
     15      4      1      8       109.4           109.4           0.000    
     16      5      1      8       109.4           109.4           0.000    
     17      4      1      9       109.4           109.4           0.000    
     18      5      1      9       109.4           109.4           0.000    
     19      4      1     10       109.4           109.4           0.000    
     20      5      1     10       109.4           109.4           0.000    
     21      4      1     11       109.4           109.4           0.000    
     22      5      1     11       109.4           109.4           0.000    
     23      4      1     12       109.4           109.4           0.000    
     24      5      1     12       109.4           109.4           0.000    
     25      4      1     13       109.4           109.4           0.000    
     26      5      1     13       109.4           109.4           0.000    
     27      4      1     14       109.4           109.4           0.000    
     28      5      1     14       109.4           109.4           0.000    
     29      4      1     15       109.4           109.4           0.000    
     30      5      1     15       109.4           109.4           0.000    
     31      4      1     16       109.4           109.4           0.000    
     32      5      1     16       109.4           109.4           0.000    
     33      4      1     17       109.4           109.4           0.000    
     34      5      1     17       109.4           109.4           0.000    
     35      4     17     17       109.3           109.2           0.000    
     36      5     17     17       109.3           109.2           0.000    
     37      4     18     17       109.3           109.2           0.000    
     38      5     18     17       109.3           109.2           0.000    
     39      4     18     16       109.3           109.2           0.000    
     40      5     18     16       109.3           109.2           0.000    
     41      4     19     16       109.3           109.2           0.000    
     42      5     19     16       109.3           109.2           0.000    
     43      4     19     15       109.2           109.2           0.000    
     44      5     19     15       109.2           109.2           0.000    
     45      4     20     15       109.2           109.2           0.000    
     46      5     20     15       109.2           109.2           0.000    
     47      4     20     14       109.2           109.2           0.000    
     48      5     20     14       109.2           109.2           0.000    
     49      4     20     13       109.2           109.2           0.000    
     50      5     20     13       109.2           109.2           0.000    
     51      4     20     12       109.2           109.2           0.000    
     52      5     20     12       109.2           109.2           0.000    
     53      4     20     11       109.2           109.2           0.000    
     54      5     20     11       109.2           109.2           0.000    
     55      4     21     11       109.2           109.2           0.000    
     56      5     21     11       109.2           109.2           0.000    
     57      4     21     10       109.2           109.2           0.000    
     58      5     21     10       109.2           109.2           0.000    
     59      4     21      9       109.2           109.2           0.000    
     60      5     21      9       109.2           109.2           0.000    
     61      4     21      8       109.2           109.2           0.000    
     62      5     21      8       109.2           109.2           0.000    
     63      4     21      7       109.2           109.2           0.000    
     64      5     21      7       109.2           109.2           0.000    
     65      4     21      6       109.2           109.2           0.000    
     66      5     21      6       109.2           109.2           0.000    
     67      4     21      5       109.2           109.2           0.000    
     68      5     21      5       109.2           109.2           0.000    
     69      4     22      5       109.2           109.2           0.000    
     70      5     22      5       109.2           109.2           0.000    
     71      4     22      4       109.2           109.2           0.000    
     72      5     22      4       109.2           109.2           0.000    
     73      4     22      3       109.2           109.2           0.000    
     74      5     22      3       109.2           109.2           0.000    
     75      4     22      2       109.2           109.2           0.000    
     76      5     22      2       109.2           109.2           0.000    
     77      4     22      1       109.2           109.2           0.000    
     78      5     22      1       109.2           109.2           0.000    


     78 TIME-VARIANT SPECIFIED-HEAD CELLS

 SOLVING FOR HEAD 


     3 CALLS TO PCG ROUTINE FOR TIME STEP   1 IN STRESS PERIOD   65
    41 TOTAL ITERATIONS

 MAXIMUM HEAD CHANGE FOR EACH ITERATION (1 INDICATES THE FIRST INNER ITERATION):

    HEAD CHANGE    HEAD CHANGE    HEAD CHANGE    HEAD CHANGE    HEAD CHANGE 
   LAYER,ROW,COL  LAYER,ROW,COL  LAYER,ROW,COL  LAYER,ROW,COL  LAYER,ROW,COL
 ---------------------------------------------------------------------------
  1 -0.1985E-01  0 -0.1268E-01  0  0.1176E-01  0 -0.1460E-01  0  0.1034E-01
   (  5, 21,  2)  (  5, 16,  1)  (  5, 15,  1)  (  5, 20,  1)  (  5, 19,  1)
  0 -0.4801E-02  0  0.2371E-02  0  0.1562E-02  0  0.1384E-02  0 -0.6467E-03
   (  5, 17,  1)  (  5, 16,  1)  (  5, 12,  2)  (  5, 18,  1)  (  5, 14,  3)
  0  0.7274E-03  0  0.3389E-03  0  0.2705E-03  0  0.1826E-03  0  0.1294E-03
   (  5, 19,  1)  (  5,  8,  1)  (  5, 20,  1)  (  5, 19,  3)  (  5, 14,  5)
  0  0.7228E-04  0  0.4586E-04  0  0.4215E-04  0 -0.2989E-04  0  0.1499E-04
   (  5, 17,  2)  (  5, 12,  5)  (  5, 16,  1)  (  5, 14,  1)  (  5, 13,  1)
  0  0.1387E-04  0 -0.9290E-05  0  0.5269E-05  0  0.3523E-05  0 -0.2228E-05
   (  5,  6,  1)  (  5,  6,  1)  (  5,  6,  1)  (  5, 18,  1)  (  5, 19,  2)
  0  0.1461E-05  0  0.1085E-05  0 -0.6847E-06  1  0.4507E-04  0  0.3576E-04
   (  5, 19,  2)  (  5,  8,  2)  (  5, 19,  3)  (  5, 13,  4)  (  3, 13,  4)
  0 -0.2081E-04  0  0.1818E-04  0 -0.1355E-04  0  0.9202E-05  0 -0.5535E-05
   (  5, 15,  1)  (  5, 17,  1)  (  5, 19,  1)  (  5, 19,  1)  (  5,  8,  1)
  0  0.3877E-05  0 -0.2964E-05  0  0.2113E-05  0 -0.1324E-05  0  0.8481E-06
   (  5, 17,  1)  (  5, 12,  3)  (  5, 20,  1)  (  5, 19,  1)  (  5, 19,  1)
  1 -0.5648E-06
   (  5, 19,  1)

 MAXIMUM RESIDUAL FOR EACH ITERATION (1 INDICATES THE FIRST INNER ITERATION):

    RESIDUAL       RESIDUAL       RESIDUAL       RESIDUAL       RESIDUAL    
   LAYER,ROW,COL  LAYER,ROW,COL  LAYER,ROW,COL  LAYER,ROW,COL  LAYER,ROW,COL
 ---------------------------------------------------------------------------
  1  0.3937E-03  0  0.2923E-03  0  0.1875E-03  0  0.1004E-03  0  0.5516E-04
   (  3, 17, 17)  (  3, 17, 17)  (  3, 17, 17)  (  3, 17, 17)  (  3, 20, 11)
  0  0.2886E-04  0  0.2076E-04  0  0.1975E-04  0  0.1547E-04  0  0.1142E-04
   (  3, 20, 11)  (  4, 16, 17)  (  4, 16, 17)  (  4, 16, 17)  (  4, 16, 17)
  0  0.7911E-05  0  0.5117E-05  0  0.3444E-05  0  0.2215E-05  0 -0.1481E-05
   (  4, 16, 17)  (  4, 16, 17)  (  4, 16, 17)  (  4, 16, 17)  (  3, 21,  6)
  0 -0.9923E-06  0 -0.6580E-06  0 -0.4574E-06  0 -0.3295E-06  0 -0.1956E-06
   (  3, 21,  6)  (  3, 21,  6)  (  5, 16, 17)  (  5, 16, 17)  (  3, 21,  5)
  0 -0.1143E-06  0 -0.6383E-07  0 -0.4436E-07  0 -0.3442E-07  0 -0.2936E-07
   (  3, 21,  5)  (  3, 21,  5)  (  3, 20, 11)  (  4, 21,  4)  (  4, 21,  4)
  0 -0.2284E-07  0 -0.1619E-07  0 -0.1020E-07  1 -0.8393E-06  0 -0.5287E-06
   (  4, 21,  4)  (  4, 21,  4)  (  4, 21,  4)  (  3, 13,  4)  (  3, 13,  4)
  0 -0.3425E-06  0 -0.1946E-06  0  0.1243E-06  0  0.1048E-06  0  0.6746E-07
   (  3, 13,  4)  (  3, 13,  4)  (  4, 13,  4)  (  4, 13,  4)  (  4, 13,  4)
  0  0.4032E-07  0  0.2774E-07  0 -0.2312E-07  0 -0.1907E-07  0 -0.1355E-07
   (  4, 13,  4)  (  4, 13,  4)  (  4, 13,  3)  (  4, 12,  4)  (  4, 12,  4)
  1 -0.1270E-07
   (  4, 13,  3)



 OUTPUT CONTROL FOR STRESS PERIOD   65   TIME STEP    1
    SAVE HEAD FOR ALL LAYERS
    SAVE DRAWDOWN FOR ALL LAYERS
    SAVE BUDGET
    PRINT BUDGET
 UBDSV1 SAVING "         STORAGE" ON UNIT   9 AT TIME STEP  1, STRESS PERIOD  65
 UBDSV2 SAVING "   CONSTANT HEAD" ON UNIT   9 AT TIME STEP  1, STRESS PERIOD  65
 UBDSV1 SAVING "FLOW RIGHT FACE " ON UNIT   9 AT TIME STEP  1, STRESS PERIOD  65
 UBDSV1 SAVING "FLOW FRONT FACE " ON UNIT   9 AT TIME STEP  1, STRESS PERIOD  65
 UBDSV1 SAVING "FLOW LOWER FACE " ON UNIT   9 AT TIME STEP  1, STRESS PERIOD  65
 UBDSV3 SAVING "        RECHARGE" ON UNIT   9 AT TIME STEP  1, STRESS PERIOD  65

 HEAD WILL BE SAVED ON UNIT   37 AT END OF TIME STEP    1, STRESS PERIOD   65

 DRAWDOWN WILL BE SAVED ON UNIT   38 AT END OF TIME STEP    1, STRESS PERIOD   65
1
  VOLUMETRIC BUDGET FOR ENTIRE MODEL AT END OF TIME STEP    1, STRESS PERIOD  65
  ------------------------------------------------------------------------------

     CUMULATIVE VOLUMES      L**3       RATES FOR THIS TIME STEP      L**3/T
     ------------------                 ------------------------

           IN:                                      IN:
           ---                                      ---
             STORAGE =       10429.5977               STORAGE =       9.3518E-06
       CONSTANT HEAD =       17307.7949         CONSTANT HEAD =       2.0185E-03
            RECHARGE =         726.7917              RECHARGE =       9.7813E-05

            TOTAL IN =       28464.1836              TOTAL IN =       2.1257E-03

          OUT:                                     OUT:
          ----                                     ----
             STORAGE =        5235.3721               STORAGE =       3.1259E-04
       CONSTANT HEAD =       23229.5352         CONSTANT HEAD =       1.8131E-03
            RECHARGE =           0.0000              RECHARGE =           0.0000

           TOTAL OUT =       28464.9062             TOTAL OUT =       2.1257E-03

            IN - OUT =          -0.7227              IN - OUT =      -8.1258E-08

 PERCENT DISCREPANCY =          -0.00     PERCENT DISCREPANCY =          -0.00






         TIME SUMMARY AT END OF TIME STEP    1 IN STRESS PERIOD   65
                    SECONDS     MINUTES      HOURS       DAYS        YEARS
                    -----------------------------------------------------------
   TIME STEP LENGTH  86400.      1440.0      24.000      1.0000     2.73785E-03
 STRESS PERIOD TIME  86400.      1440.0      24.000      1.0000     2.73785E-03
         TOTAL TIME 7.43040E+06 1.23840E+05  2064.0      86.000     0.23546    
1
1
                            STRESS PERIOD NO.   66, LENGTH =   86400.00    
                            -----------------------------------------------

                              NUMBER OF TIME STEPS =     1

                               MULTIPLIER FOR DELT =     1.000

                            INITIAL TIME STEP SIZE =   86400.00    

 REUSING RECH FROM LAST STRESS PERIOD

 CHD NO.   LAYER   ROW   COL    START HEAD        END HEAD         IFACE           
 ----------------------------------------------------------------------------------
      1      4      1      1       109.4           109.4           0.000    
      2      5      1      1       109.4           109.4           0.000    
      3      4      1      2       109.4           109.4           0.000    
      4      5      1      2       109.4           109.4           0.000    
      5      4      1      3       109.4           109.4           0.000    
      6      5      1      3       109.4           109.4           0.000    
      7      4      1      4       109.4           109.4           0.000    
      8      5      1      4       109.4           109.4           0.000    
      9      4      1      5       109.4           109.4           0.000    
     10      5      1      5       109.4           109.4           0.000    
     11      4      1      6       109.4           109.4           0.000    
     12      5      1      6       109.4           109.4           0.000    
     13      4      1      7       109.4           109.4           0.000    
     14      5      1      7       109.4           109.4           0.000    
     15      4      1      8       109.4           109.4           0.000    
     16      5      1      8       109.4           109.4           0.000    
     17      4      1      9       109.4           109.4           0.000    
     18      5      1      9       109.4           109.4           0.000    
     19      4      1     10       109.4           109.4           0.000    
     20      5      1     10       109.4           109.4           0.000    
     21      4      1     11       109.4           109.4           0.000    
     22      5      1     11       109.4           109.4           0.000    
     23      4      1     12       109.4           109.4           0.000    
     24      5      1     12       109.4           109.4           0.000    
     25      4      1     13       109.4           109.4           0.000    
     26      5      1     13       109.4           109.4           0.000    
     27      4      1     14       109.4           109.4           0.000    
     28      5      1     14       109.4           109.4           0.000    
     29      4      1     15       109.4           109.4           0.000    
     30      5      1     15       109.4           109.4           0.000    
     31      4      1     16       109.4           109.4           0.000    
     32      5      1     16       109.4           109.4           0.000    
     33      4      1     17       109.4           109.4           0.000    
     34      5      1     17       109.4           109.4           0.000    
     35      4     17     17       109.2           109.3           0.000    
     36      5     17     17       109.2           109.3           0.000    
     37      4     18     17       109.2           109.3           0.000    
     38      5     18     17       109.2           109.3           0.000    
     39      4     18     16       109.2           109.3           0.000    
     40      5     18     16       109.2           109.3           0.000    
     41      4     19     16       109.2           109.3           0.000    
     42      5     19     16       109.2           109.3           0.000    
     43      4     19     15       109.2           109.3           0.000    
     44      5     19     15       109.2           109.3           0.000    
     45      4     20     15       109.2           109.3           0.000    
     46      5     20     15       109.2           109.3           0.000    
     47      4     20     14       109.2           109.3           0.000    
     48      5     20     14       109.2           109.3           0.000    
     49      4     20     13       109.2           109.3           0.000    
     50      5     20     13       109.2           109.3           0.000    
     51      4     20     12       109.2           109.3           0.000    
     52      5     20     12       109.2           109.3           0.000    
     53      4     20     11       109.2           109.3           0.000    
     54      5     20     11       109.2           109.3           0.000    
     55      4     21     11       109.2           109.3           0.000    
     56      5     21     11       109.2           109.3           0.000    
     57      4     21     10       109.2           109.3           0.000    
     58      5     21     10       109.2           109.3           0.000    
     59      4     21      9       109.2           109.3           0.000    
     60      5     21      9       109.2           109.3           0.000    
     61      4     21      8       109.2           109.3           0.000    
     62      5     21      8       109.2           109.3           0.000    
     63      4     21      7       109.2           109.3           0.000    
     64      5     21      7       109.2           109.3           0.000    
     65      4     21      6       109.2           109.3           0.000    
     66      5     21      6       109.2           109.3           0.000    
     67      4     21      5       109.2           109.3           0.000    
     68      5     21      5       109.2           109.3           0.000    
     69      4     22      5       109.2           109.3           0.000    
     70      5     22      5       109.2           109.3           0.000    
     71      4     22      4       109.2           109.3           0.000    
     72      5     22      4       109.2           109.3           0.000    
     73      4     22      3       109.2           109.3           0.000    
     74      5     22      3       109.2           109.3           0.000    
     75      4     22      2       109.2           109.3           0.000    
     76      5     22      2       109.2           109.3           0.000    
     77      4     22      1       109.2           109.3           0.000    
     78      5     22      1       109.2           109.3           0.000    


     78 TIME-VARIANT SPECIFIED-HEAD CELLS

 SOLVING FOR HEAD 


     3 CALLS TO PCG ROUTINE FOR TIME STEP   1 IN STRESS PERIOD   66
    51 TOTAL ITERATIONS

 MAXIMUM HEAD CHANGE FOR EACH ITERATION (1 INDICATES THE FIRST INNER ITERATION):

    HEAD CHANGE    HEAD CHANGE    HEAD CHANGE    HEAD CHANGE    HEAD CHANGE 
   LAYER,ROW,COL  LAYER,ROW,COL  LAYER,ROW,COL  LAYER,ROW,COL  LAYER,ROW,COL
 ---------------------------------------------------------------------------
  1  0.2577      0 -0.1995      0  0.1535      0 -0.1008      0  0.7128E-01
   (  5, 21,  2)  (  5, 20,  1)  (  5, 19,  1)  (  5, 17,  1)  (  5, 16,  1)
  0 -0.4359E-01  0  0.4442E-01  0 -0.2253E-01  0  0.1055E-01  0  0.7344E-02
   (  5, 15,  1)  (  5, 18,  1)  (  5, 17,  1)  (  5, 19,  1)  (  5, 14,  4)
  0 -0.6089E-02  0  0.4309E-02  0 -0.3725E-02  0  0.1623E-02  0 -0.1082E-02
   (  5, 19,  1)  (  5, 16,  3)  (  5, 15,  3)  (  5, 15,  5)  (  5, 14,  5)
  0 -0.8227E-03  0  0.5922E-03  0 -0.3304E-03  0  0.2283E-03  0  0.1234E-03
   (  5, 17,  2)  (  5, 16,  3)  (  5, 15,  3)  (  5, 15,  4)  (  5, 13,  6)
  0  0.8379E-04  0  0.8499E-04  0 -0.5380E-04  0  0.4182E-04  0 -0.3648E-04
   (  5, 13,  1)  (  5, 19,  1)  (  5, 18,  1)  (  5,  7,  1)  (  5, 16,  1)
  0  0.2153E-04  0 -0.1011E-04  0  0.8892E-05  0  0.6802E-05  0 -0.4486E-05
   (  5, 15,  1)  (  5, 19,  2)  (  5,  8,  1)  (  5,  6,  1)  (  5,  6,  1)
  1  0.6090E-03  0 -0.4264E-03  0  0.7625E-03  0 -0.3139E-03  0  0.2138E-03
   (  5, 17,  3)  (  5, 19,  1)  (  5, 18,  1)  (  5, 21,  3)  (  5, 14,  1)
  0  0.1230E-03  0  0.7055E-04  0 -0.8974E-04  0  0.8045E-04  0 -0.4009E-04
   (  5, 21,  1)  (  5, 11,  2)  (  5, 20,  1)  (  5, 19,  1)  (  5, 20,  2)
  0  0.3066E-04  0 -0.2085E-04  0  0.1326E-04  0 -0.6400E-05  0  0.5806E-05
   (  5, 14,  3)  (  5, 15,  5)  (  5, 13,  5)  (  5, 14,  7)  (  5, 12,  7)
  0  0.3577E-05  0  0.2222E-05  0  0.1660E-05  0  0.1167E-05  0  0.8599E-06
   (  5, 17,  4)  (  5,  9,  4)  (  5, 18,  3)  (  5, 21,  1)  (  5, 17,  2)
  1 -0.8506E-06
   (  5, 17,  1)

 MAXIMUM RESIDUAL FOR EACH ITERATION (1 INDICATES THE FIRST INNER ITERATION):

    RESIDUAL       RESIDUAL       RESIDUAL       RESIDUAL       RESIDUAL    
   LAYER,ROW,COL  LAYER,ROW,COL  LAYER,ROW,COL  LAYER,ROW,COL  LAYER,ROW,COL
 ---------------------------------------------------------------------------
  1 -0.4978E-02  0 -0.3938E-02  0 -0.2739E-02  0 -0.1740E-02  0 -0.1018E-02
   (  3, 17, 17)  (  3, 17, 17)  (  3, 17, 17)  (  3, 17, 17)  (  3, 17, 17)
  0 -0.6222E-03  0 -0.3947E-03  0 -0.2480E-03  0 -0.1943E-03  0 -0.1448E-03
   (  3, 20, 11)  (  3, 20, 11)  (  3, 20, 11)  (  4, 16, 17)  (  4, 16, 17)
  0 -0.1085E-03  0 -0.7617E-04  0 -0.5297E-04  0 -0.3575E-04  0 -0.2403E-04
   (  4, 16, 17)  (  4, 16, 17)  (  4, 16, 17)  (  4, 16, 17)  (  4, 16, 17)
  0 -0.1540E-04  0 -0.9939E-05  0  0.6167E-05  0  0.3601E-05  0  0.1805E-05
   (  4, 16, 17)  (  4, 16, 17)  (  3, 21,  6)  (  3, 21,  6)  (  3, 21,  6)
  0  0.9485E-06  0 -0.7684E-06  0 -0.5960E-06  0 -0.4638E-06  0 -0.3767E-06
   (  3, 21,  5)  (  3, 17, 17)  (  3, 17, 17)  (  3, 17, 17)  (  3, 17, 17)
  0 -0.3120E-06  0 -0.2264E-06  0 -0.1578E-06  0 -0.1070E-06  0 -0.7302E-07
   (  3, 17, 17)  (  3, 17, 17)  (  3, 17, 17)  (  3, 17, 17)  (  3, 17, 17)
  1 -0.8426E-05  0 -0.5003E-05  0  0.2611E-05  0  0.2437E-05  0 -0.2210E-05
   (  3, 21,  2)  (  3, 21,  2)  (  4, 21,  2)  (  4, 21,  2)  (  4, 21,  1)
  0 -0.2080E-05  0 -0.1624E-05  0  0.1082E-05  0  0.7863E-06  0  0.5790E-06
   (  4, 21,  1)  (  4, 21,  1)  (  4, 21,  2)  (  4, 21,  2)  (  4, 21,  2)
  0  0.3741E-06  0  0.2382E-06  0 -0.1420E-06  0 -0.1145E-06  0 -0.8167E-07
   (  4, 21,  2)  (  4, 21,  2)  (  4, 20,  2)  (  4, 20,  2)  (  4, 20,  2)
  0 -0.5148E-07  0  0.2782E-07  0  0.2443E-07  0  0.1922E-07  0  0.1280E-07
   (  4, 20,  2)  (  4, 20,  3)  (  4, 20,  3)  (  4, 20,  3)  (  4, 20,  3)
  1  0.1206E-07
   (  4, 20,  3)



 OUTPUT CONTROL FOR STRESS PERIOD   66   TIME STEP    1
    SAVE HEAD FOR ALL LAYERS
    SAVE DRAWDOWN FOR ALL LAYERS
    SAVE BUDGET
    PRINT BUDGET
 UBDSV1 SAVING "         STORAGE" ON UNIT   9 AT TIME STEP  1, STRESS PERIOD  66
 UBDSV2 SAVING "   CONSTANT HEAD" ON UNIT   9 AT TIME STEP  1, STRESS PERIOD  66
 UBDSV1 SAVING "FLOW RIGHT FACE " ON UNIT   9 AT TIME STEP  1, STRESS PERIOD  66
 UBDSV1 SAVING "FLOW FRONT FACE " ON UNIT   9 AT TIME STEP  1, STRESS PERIOD  66
 UBDSV1 SAVING "FLOW LOWER FACE " ON UNIT   9 AT TIME STEP  1, STRESS PERIOD  66
 UBDSV3 SAVING "        RECHARGE" ON UNIT   9 AT TIME STEP  1, STRESS PERIOD  66

 HEAD WILL BE SAVED ON UNIT   37 AT END OF TIME STEP    1, STRESS PERIOD   66

 DRAWDOWN WILL BE SAVED ON UNIT   38 AT END OF TIME STEP    1, STRESS PERIOD   66
1
  VOLUMETRIC BUDGET FOR ENTIRE MODEL AT END OF TIME STEP    1, STRESS PERIOD  66
  ------------------------------------------------------------------------------

     CUMULATIVE VOLUMES      L**3       RATES FOR THIS TIME STEP      L**3/T
     ------------------                 ------------------------

           IN:                                      IN:
           ---                                      ---
             STORAGE =       10429.5977               STORAGE =           0.0000
       CONSTANT HEAD =       17491.1641         CONSTANT HEAD =       2.1223E-03
            RECHARGE =         735.2428              RECHARGE =       9.7813E-05

            TOTAL IN =       28656.0039              TOTAL IN =       2.2201E-03

          OUT:                                     OUT:
          ----                                     ----
             STORAGE =        5417.0347               STORAGE =       2.1026E-03
       CONSTANT HEAD =       23239.6992         CONSTANT HEAD =       1.1765E-04
            RECHARGE =           0.0000              RECHARGE =           0.0000

           TOTAL OUT =       28656.7344             TOTAL OUT =       2.2202E-03

            IN - OUT =          -0.7305              IN - OUT =      -9.1735E-08

 PERCENT DISCREPANCY =          -0.00     PERCENT DISCREPANCY =          -0.00






         TIME SUMMARY AT END OF TIME STEP    1 IN STRESS PERIOD   66
                    SECONDS     MINUTES      HOURS       DAYS        YEARS
                    -----------------------------------------------------------
   TIME STEP LENGTH  86400.      1440.0      24.000      1.0000     2.73785E-03
 STRESS PERIOD TIME  86400.      1440.0      24.000      1.0000     2.73785E-03
         TOTAL TIME 7.51680E+06 1.25280E+05  2088.0      87.000     0.23819    
1
1
                            STRESS PERIOD NO.   67, LENGTH =   86400.00    
                            -----------------------------------------------

                              NUMBER OF TIME STEPS =     1

                               MULTIPLIER FOR DELT =     1.000

                            INITIAL TIME STEP SIZE =   86400.00    

 REUSING RECH FROM LAST STRESS PERIOD

 CHD NO.   LAYER   ROW   COL    START HEAD        END HEAD         IFACE           
 ----------------------------------------------------------------------------------
      1      4      1      1       109.4           109.4           0.000    
      2      5      1      1       109.4           109.4           0.000    
      3      4      1      2       109.4           109.4           0.000    
      4      5      1      2       109.4           109.4           0.000    
      5      4      1      3       109.4           109.4           0.000    
      6      5      1      3       109.4           109.4           0.000    
      7      4      1      4       109.4           109.4           0.000    
      8      5      1      4       109.4           109.4           0.000    
      9      4      1      5       109.4           109.4           0.000    
     10      5      1      5       109.4           109.4           0.000    
     11      4      1      6       109.4           109.4           0.000    
     12      5      1      6       109.4           109.4           0.000    
     13      4      1      7       109.4           109.4           0.000    
     14      5      1      7       109.4           109.4           0.000    
     15      4      1      8       109.4           109.4           0.000    
     16      5      1      8       109.4           109.4           0.000    
     17      4      1      9       109.4           109.4           0.000    
     18      5      1      9       109.4           109.4           0.000    
     19      4      1     10       109.4           109.4           0.000    
     20      5      1     10       109.4           109.4           0.000    
     21      4      1     11       109.4           109.4           0.000    
     22      5      1     11       109.4           109.4           0.000    
     23      4      1     12       109.4           109.4           0.000    
     24      5      1     12       109.4           109.4           0.000    
     25      4      1     13       109.4           109.4           0.000    
     26      5      1     13       109.4           109.4           0.000    
     27      4      1     14       109.4           109.4           0.000    
     28      5      1     14       109.4           109.4           0.000    
     29      4      1     15       109.4           109.4           0.000    
     30      5      1     15       109.4           109.4           0.000    
     31      4      1     16       109.4           109.4           0.000    
     32      5      1     16       109.4           109.4           0.000    
     33      4      1     17       109.4           109.4           0.000    
     34      5      1     17       109.4           109.4           0.000    
     35      4     17     17       109.3           109.4           0.000    
     36      5     17     17       109.3           109.4           0.000    
     37      4     18     17       109.3           109.4           0.000    
     38      5     18     17       109.3           109.4           0.000    
     39      4     18     16       109.3           109.4           0.000    
     40      5     18     16       109.3           109.4           0.000    
     41      4     19     16       109.3           109.4           0.000    
     42      5     19     16       109.3           109.4           0.000    
     43      4     19     15       109.3           109.4           0.000    
     44      5     19     15       109.3           109.4           0.000    
     45      4     20     15       109.3           109.4           0.000    
     46      5     20     15       109.3           109.4           0.000    
     47      4     20     14       109.3           109.4           0.000    
     48      5     20     14       109.3           109.4           0.000    
     49      4     20     13       109.3           109.4           0.000    
     50      5     20     13       109.3           109.4           0.000    
     51      4     20     12       109.3           109.4           0.000    
     52      5     20     12       109.3           109.4           0.000    
     53      4     20     11       109.3           109.4           0.000    
     54      5     20     11       109.3           109.4           0.000    
     55      4     21     11       109.3           109.4           0.000    
     56      5     21     11       109.3           109.4           0.000    
     57      4     21     10       109.3           109.4           0.000    
     58      5     21     10       109.3           109.4           0.000    
     59      4     21      9       109.3           109.4           0.000    
     60      5     21      9       109.3           109.4           0.000    
     61      4     21      8       109.3           109.4           0.000    
     62      5     21      8       109.3           109.4           0.000    
     63      4     21      7       109.3           109.4           0.000    
     64      5     21      7       109.3           109.4           0.000    
     65      4     21      6       109.3           109.4           0.000    
     66      5     21      6       109.3           109.4           0.000    
     67      4     21      5       109.3           109.3           0.000    
     68      5     21      5       109.3           109.3           0.000    
     69      4     22      5       109.3           109.3           0.000    
     70      5     22      5       109.3           109.3           0.000    
     71      4     22      4       109.3           109.3           0.000    
     72      5     22      4       109.3           109.3           0.000    
     73      4     22      3       109.3           109.3           0.000    
     74      5     22      3       109.3           109.3           0.000    
     75      4     22      2       109.3           109.3           0.000    
     76      5     22      2       109.3           109.3           0.000    
     77      4     22      1       109.3           109.3           0.000    
     78      5     22      1       109.3           109.3           0.000    


     78 TIME-VARIANT SPECIFIED-HEAD CELLS

 SOLVING FOR HEAD 


     3 CALLS TO PCG ROUTINE FOR TIME STEP   1 IN STRESS PERIOD   67
    60 TOTAL ITERATIONS

 MAXIMUM HEAD CHANGE FOR EACH ITERATION (1 INDICATES THE FIRST INNER ITERATION):

    HEAD CHANGE    HEAD CHANGE    HEAD CHANGE    HEAD CHANGE    HEAD CHANGE 
   LAYER,ROW,COL  LAYER,ROW,COL  LAYER,ROW,COL  LAYER,ROW,COL  LAYER,ROW,COL
 ---------------------------------------------------------------------------
  1  0.1128      0 -0.8447E-01  0  0.7150E-01  0 -0.4862E-01  0  0.3443E-01
   (  5, 21,  2)  (  5, 20,  1)  (  5, 18,  1)  (  5, 17,  1)  (  5, 15,  1)
  0 -0.2081E-01  0  0.1770E-01  0  0.7830E-02  0  0.5076E-02  0 -0.4099E-02
   (  5, 19,  1)  (  5, 18,  1)  (  5, 16,  3)  (  5, 11,  3)  (  5, 16,  3)
  0 -0.2521E-02  0  0.1456E-02  0 -0.1649E-02  0  0.1011E-02  0 -0.6282E-03
   (  5, 19,  1)  (  5, 13,  6)  (  5, 15,  3)  (  5, 15,  5)  (  5, 13,  4)
  0 -0.3751E-03  0  0.2446E-03  0 -0.2010E-03  0  0.1541E-03  0 -0.7116E-04
   (  5, 17,  2)  (  5, 16,  3)  (  5, 18,  2)  (  5, 17,  2)  (  5, 14,  4)
  0  0.7172E-04  0 -0.5989E-04  0  0.2739E-04  0 -0.2378E-04  0  0.1669E-04
   (  5, 18,  2)  (  5, 18,  1)  (  5, 16,  1)  (  5, 13,  2)  (  5, 14,  1)
  0 -0.9924E-05  0 -0.7453E-05  0  0.5218E-05  0 -0.3019E-05  0 -0.2177E-05
   (  5, 16,  1)  (  5,  6,  1)  (  5,  7,  1)  (  5,  7,  1)  (  5, 19,  3)
  1  0.6578E-03  0  0.5665E-03  0  0.6627E-03  0  0.7843E-03  0  0.6803E-03
   (  5, 15,  2)  (  5, 13,  4)  (  5, 17,  1)  (  5, 14,  1)  (  5, 18,  1)
  0  0.6397E-03  0  0.3961E-03  0 -0.2433E-03  0  0.1669E-03  0 -0.2058E-03
   (  5, 17,  3)  (  5, 20,  1)  (  5, 20,  1)  (  5, 20,  1)  (  5, 16,  5)
  0 -0.1794E-03  0  0.8428E-04  0 -0.1198E-03  0 -0.5700E-04  0 -0.3565E-04
   (  5, 16,  1)  (  5, 15,  1)  (  5, 19,  3)  (  5, 18,  1)  (  5, 16,  4)
  0 -0.2819E-04  0 -0.2360E-04  0 -0.2509E-04  0 -0.1231E-04  0  0.1145E-04
   (  5, 18,  2)  (  5, 15,  5)  (  5, 19,  1)  (  5, 19,  3)  (  5, 19,  1)
  0 -0.7351E-05  0  0.6495E-05  0 -0.6689E-05  0 -0.3510E-05  0  0.3015E-05
   (  5, 18,  1)  (  5, 16,  1)  (  5, 15,  1)  (  5, 17,  3)  (  5, 20,  1)
  0  0.1661E-05  0  0.1312E-05  0  0.1112E-05  0  0.9470E-06  1 -0.9332E-06
   (  5,  8,  1)  (  5, 18,  1)  (  5, 14,  2)  (  5, 16,  1)  (  5, 16,  1)

 MAXIMUM RESIDUAL FOR EACH ITERATION (1 INDICATES THE FIRST INNER ITERATION):

    RESIDUAL       RESIDUAL       RESIDUAL       RESIDUAL       RESIDUAL    
   LAYER,ROW,COL  LAYER,ROW,COL  LAYER,ROW,COL  LAYER,ROW,COL  LAYER,ROW,COL
 ---------------------------------------------------------------------------
  1 -0.2004E-02  0 -0.1638E-02  0 -0.1230E-02  0 -0.8715E-03  0 -0.5789E-03
   (  3, 17, 17)  (  3, 17, 17)  (  3, 17, 17)  (  3, 17, 17)  (  3, 17, 17)
  0 -0.3607E-03  0 -0.2134E-03  0 -0.1334E-03  0 -0.8119E-04  0 -0.5893E-04
   (  3, 20, 11)  (  3, 20, 11)  (  3, 20, 11)  (  3, 20, 11)  (  4, 16, 17)
  0 -0.4450E-04  0 -0.3214E-04  0 -0.2368E-04  0 -0.1679E-04  0 -0.1144E-04
   (  4, 16, 17)  (  4, 16, 17)  (  4, 16, 17)  (  4, 16, 17)  (  4, 16, 17)
  0 -0.7404E-05  0 -0.4967E-05  0 -0.3251E-05  0 -0.1973E-05  0  0.1133E-05
   (  4, 16, 17)  (  4, 16, 17)  (  4, 16, 17)  (  4, 16, 17)  (  3, 21,  6)
  0  0.7017E-06  0 -0.5106E-06  0 -0.3286E-06  0 -0.2369E-06  0 -0.1828E-06
   (  3, 21,  6)  (  4, 16, 17)  (  4, 16, 17)  (  4, 16, 17)  (  3, 17, 17)
  0 -0.1337E-06  0 -0.9886E-07  0 -0.7187E-07  0 -0.5194E-07  0 -0.3681E-07
   (  3, 17, 17)  (  3, 17, 17)  (  3, 17, 17)  (  3, 17, 17)  (  3, 17, 17)
  1 -0.3649E-05  0 -0.3512E-05  0 -0.3166E-05  0 -0.2577E-05  0 -0.2092E-05
   (  3, 10,  4)  (  3, 10,  4)  (  3, 10,  4)  (  3, 10,  4)  (  3, 10,  4)
  0 -0.2202E-05  0 -0.1977E-05  0 -0.1530E-05  0 -0.1434E-05  0 -0.1023E-05
   (  4, 19,  1)  (  4, 21,  1)  (  4, 21,  1)  (  4, 21,  1)  (  4, 21,  1)
  0  0.8497E-06  0  0.6751E-06  0  0.7302E-06  0  0.6061E-06  0  0.5270E-06
   (  4, 19,  2)  (  4, 19,  2)  (  4, 21,  2)  (  4, 21,  2)  (  4, 21,  2)
  0  0.5000E-06  0  0.3551E-06  0  0.2339E-06  0  0.1227E-06  0 -0.8938E-07
   (  4, 21,  2)  (  4, 21,  2)  (  4, 21,  2)  (  4, 21,  2)  (  4, 20,  2)
  0 -0.8226E-07  0 -0.8049E-07  0 -0.5778E-07  0 -0.4095E-07  0 -0.2836E-07
   (  4, 20,  2)  (  4, 20,  2)  (  4, 20,  2)  (  4, 20,  2)  (  4, 21,  2)
  0 -0.2165E-07  0 -0.2016E-07  0 -0.1338E-07  0  0.7698E-08  1  0.9291E-08
   (  4, 21,  2)  (  4, 21,  2)  (  4, 21,  2)  (  4, 20,  3)  (  2, 13,  5)



 OUTPUT CONTROL FOR STRESS PERIOD   67   TIME STEP    1
    SAVE HEAD FOR ALL LAYERS
    SAVE DRAWDOWN FOR ALL LAYERS
    SAVE BUDGET
    PRINT BUDGET
 UBDSV1 SAVING "         STORAGE" ON UNIT   9 AT TIME STEP  1, STRESS PERIOD  67
 UBDSV2 SAVING "   CONSTANT HEAD" ON UNIT   9 AT TIME STEP  1, STRESS PERIOD  67
 UBDSV1 SAVING "FLOW RIGHT FACE " ON UNIT   9 AT TIME STEP  1, STRESS PERIOD  67
 UBDSV1 SAVING "FLOW FRONT FACE " ON UNIT   9 AT TIME STEP  1, STRESS PERIOD  67
 UBDSV1 SAVING "FLOW LOWER FACE " ON UNIT   9 AT TIME STEP  1, STRESS PERIOD  67
 UBDSV3 SAVING "        RECHARGE" ON UNIT   9 AT TIME STEP  1, STRESS PERIOD  67

 HEAD WILL BE SAVED ON UNIT   37 AT END OF TIME STEP    1, STRESS PERIOD   67

 DRAWDOWN WILL BE SAVED ON UNIT   38 AT END OF TIME STEP    1, STRESS PERIOD   67
1
  VOLUMETRIC BUDGET FOR ENTIRE MODEL AT END OF TIME STEP    1, STRESS PERIOD  67
  ------------------------------------------------------------------------------

     CUMULATIVE VOLUMES      L**3       RATES FOR THIS TIME STEP      L**3/T
     ------------------                 ------------------------

           IN:                                      IN:
           ---                                      ---
             STORAGE =       10431.1895               STORAGE =       1.8423E-05
       CONSTANT HEAD =       17584.9766         CONSTANT HEAD =       1.0858E-03
            RECHARGE =         743.6938              RECHARGE =       9.7813E-05

            TOTAL IN =       28759.8594              TOTAL IN =       1.2020E-03

          OUT:                                     OUT:
          ----                                     ----
             STORAGE =        5505.6636               STORAGE =       1.0258E-03
       CONSTANT HEAD =       23254.9336         CONSTANT HEAD =       1.7631E-04
            RECHARGE =           0.0000              RECHARGE =           0.0000

           TOTAL OUT =       28760.5977             TOTAL OUT =       1.2021E-03

            IN - OUT =          -0.7383              IN - OUT =      -9.1968E-08

 PERCENT DISCREPANCY =          -0.00     PERCENT DISCREPANCY =          -0.01






         TIME SUMMARY AT END OF TIME STEP    1 IN STRESS PERIOD   67
                    SECONDS     MINUTES      HOURS       DAYS        YEARS
                    -----------------------------------------------------------
   TIME STEP LENGTH  86400.      1440.0      24.000      1.0000     2.73785E-03
 STRESS PERIOD TIME  86400.      1440.0      24.000      1.0000     2.73785E-03
         TOTAL TIME 7.60320E+06 1.26720E+05  2112.0      88.000     0.24093    
1
1
                            STRESS PERIOD NO.   68, LENGTH =   86400.00    
                            -----------------------------------------------

                              NUMBER OF TIME STEPS =     1

                               MULTIPLIER FOR DELT =     1.000

                            INITIAL TIME STEP SIZE =   86400.00    

 REUSING RECH FROM LAST STRESS PERIOD

 CHD NO.   LAYER   ROW   COL    START HEAD        END HEAD         IFACE           
 ----------------------------------------------------------------------------------
      1      4      1      1       109.4           109.5           0.000    
      2      5      1      1       109.4           109.5           0.000    
      3      4      1      2       109.4           109.5           0.000    
      4      5      1      2       109.4           109.5           0.000    
      5      4      1      3       109.4           109.5           0.000    
      6      5      1      3       109.4           109.5           0.000    
      7      4      1      4       109.4           109.5           0.000    
      8      5      1      4       109.4           109.5           0.000    
      9      4      1      5       109.4           109.5           0.000    
     10      5      1      5       109.4           109.5           0.000    
     11      4      1      6       109.4           109.5           0.000    
     12      5      1      6       109.4           109.5           0.000    
     13      4      1      7       109.4           109.5           0.000    
     14      5      1      7       109.4           109.5           0.000    
     15      4      1      8       109.4           109.5           0.000    
     16      5      1      8       109.4           109.5           0.000    
     17      4      1      9       109.4           109.5           0.000    
     18      5      1      9       109.4           109.5           0.000    
     19      4      1     10       109.4           109.5           0.000    
     20      5      1     10       109.4           109.5           0.000    
     21      4      1     11       109.4           109.5           0.000    
     22      5      1     11       109.4           109.5           0.000    
     23      4      1     12       109.4           109.5           0.000    
     24      5      1     12       109.4           109.5           0.000    
     25      4      1     13       109.4           109.5           0.000    
     26      5      1     13       109.4           109.5           0.000    
     27      4      1     14       109.4           109.5           0.000    
     28      5      1     14       109.4           109.5           0.000    
     29      4      1     15       109.4           109.5           0.000    
     30      5      1     15       109.4           109.5           0.000    
     31      4      1     16       109.4           109.5           0.000    
     32      5      1     16       109.4           109.5           0.000    
     33      4      1     17       109.4           109.5           0.000    
     34      5      1     17       109.4           109.5           0.000    
     35      4     17     17       109.4           109.4           0.000    
     36      5     17     17       109.4           109.4           0.000    
     37      4     18     17       109.4           109.4           0.000    
     38      5     18     17       109.4           109.4           0.000    
     39      4     18     16       109.4           109.4           0.000    
     40      5     18     16       109.4           109.4           0.000    
     41      4     19     16       109.4           109.4           0.000    
     42      5     19     16       109.4           109.4           0.000    
     43      4     19     15       109.4           109.4           0.000    
     44      5     19     15       109.4           109.4           0.000    
     45      4     20     15       109.4           109.4           0.000    
     46      5     20     15       109.4           109.4           0.000    
     47      4     20     14       109.4           109.4           0.000    
     48      5     20     14       109.4           109.4           0.000    
     49      4     20     13       109.4           109.4           0.000    
     50      5     20     13       109.4           109.4           0.000    
     51      4     20     12       109.4           109.4           0.000    
     52      5     20     12       109.4           109.4           0.000    
     53      4     20     11       109.4           109.4           0.000    
     54      5     20     11       109.4           109.4           0.000    
     55      4     21     11       109.4           109.4           0.000    
     56      5     21     11       109.4           109.4           0.000    
     57      4     21     10       109.4           109.4           0.000    
     58      5     21     10       109.4           109.4           0.000    
     59      4     21      9       109.4           109.4           0.000    
     60      5     21      9       109.4           109.4           0.000    
     61      4     21      8       109.4           109.4           0.000    
     62      5     21      8       109.4           109.4           0.000    
     63      4     21      7       109.4           109.4           0.000    
     64      5     21      7       109.4           109.4           0.000    
     65      4     21      6       109.4           109.4           0.000    
     66      5     21      6       109.4           109.4           0.000    
     67      4     21      5       109.3           109.4           0.000    
     68      5     21      5       109.3           109.4           0.000    
     69      4     22      5       109.3           109.4           0.000    
     70      5     22      5       109.3           109.4           0.000    
     71      4     22      4       109.3           109.4           0.000    
     72      5     22      4       109.3           109.4           0.000    
     73      4     22      3       109.3           109.4           0.000    
     74      5     22      3       109.3           109.4           0.000    
     75      4     22      2       109.3           109.4           0.000    
     76      5     22      2       109.3           109.4           0.000    
     77      4     22      1       109.3           109.4           0.000    
     78      5     22      1       109.3           109.4           0.000    


     78 TIME-VARIANT SPECIFIED-HEAD CELLS

 SOLVING FOR HEAD 


     3 CALLS TO PCG ROUTINE FOR TIME STEP   1 IN STRESS PERIOD   68
    53 TOTAL ITERATIONS

 MAXIMUM HEAD CHANGE FOR EACH ITERATION (1 INDICATES THE FIRST INNER ITERATION):

    HEAD CHANGE    HEAD CHANGE    HEAD CHANGE    HEAD CHANGE    HEAD CHANGE 
   LAYER,ROW,COL  LAYER,ROW,COL  LAYER,ROW,COL  LAYER,ROW,COL  LAYER,ROW,COL
 ---------------------------------------------------------------------------
  1  0.1143      0 -0.8070E-01  0 -0.7638E-01  0  0.5950E-01  0  0.6655E-01
   (  5, 21,  2)  (  5, 17,  1)  (  5, 20,  1)  (  5, 17,  1)  (  5, 19,  1)
  0  0.3911E-01  0 -0.3409E-01  0 -0.2269E-01  0  0.1882E-01  0  0.1132E-01
   (  5, 20,  1)  (  5, 18,  1)  (  5, 17,  3)  (  5, 18,  1)  (  5, 19,  1)
  0  0.9086E-02  0  0.5755E-02  0 -0.7665E-02  0  0.4842E-02  0  0.2956E-02
   (  5, 14,  5)  (  5, 17,  2)  (  5, 16,  3)  (  5, 12,  5)  (  5, 19,  3)
  0  0.2013E-02  0 -0.1376E-02  0  0.1354E-02  0 -0.1745E-02  0 -0.9739E-03
   (  5, 16,  2)  (  5, 18,  2)  (  5, 17,  2)  (  5, 19,  3)  (  5, 17,  2)
  0  0.5712E-03  0 -0.4855E-03  0  0.3424E-03  0  0.2556E-03  0  0.1808E-03
   (  5, 16,  1)  (  5, 20,  3)  (  5, 20,  1)  (  5, 19,  3)  (  5, 18,  5)
  0  0.1316E-03  0 -0.8057E-04  0  0.6485E-04  0  0.6478E-04  0 -0.3887E-04
   (  5, 20,  3)  (  5, 16,  2)  (  5, 16,  1)  (  5,  6,  1)  (  5, 18,  1)
  1  0.1659E-03  0  0.1943E-03  0 -0.1590E-03  0  0.1730E-03  0  0.1139E-03
   (  5, 18,  1)  (  5, 13,  3)  (  5, 16,  1)  (  5,  6,  1)  (  5, 12,  4)
  0 -0.8293E-04  0 -0.6260E-04  0 -0.4566E-04  0  0.3773E-04  0 -0.2018E-04
   (  5, 13,  3)  (  5, 12,  5)  (  5, 20,  1)  (  5, 20,  1)  (  5, 20,  1)
  0 -0.1280E-04  0 -0.1059E-04  0  0.4825E-05  0 -0.8391E-05  0  0.4759E-05
   (  5, 18,  3)  (  5, 15,  1)  (  5, 15,  2)  (  5, 17,  3)  (  5, 17,  5)
  0 -0.4961E-05  0 -0.2696E-05  0  0.2984E-05  0 -0.1589E-05  0  0.1336E-05
   (  5, 18,  1)  (  5, 15,  3)  (  5, 15,  4)  (  5, 20,  3)  (  5, 19,  3)
  0  0.1034E-05  0 -0.7334E-06  1  0.6338E-06
   (  5, 17,  1)  (  5, 16,  2)  (  5, 16,  2)

 MAXIMUM RESIDUAL FOR EACH ITERATION (1 INDICATES THE FIRST INNER ITERATION):

    RESIDUAL       RESIDUAL       RESIDUAL       RESIDUAL       RESIDUAL    
   LAYER,ROW,COL  LAYER,ROW,COL  LAYER,ROW,COL  LAYER,ROW,COL  LAYER,ROW,COL
 ---------------------------------------------------------------------------
  1 -0.2155E-02  0 -0.1840E-02  0 -0.1557E-02  0 -0.1247E-02  0 -0.9293E-03
   (  3, 17, 17)  (  3, 17, 17)  (  3, 17, 17)  (  3, 17, 17)  (  3, 17, 17)
  0 -0.6493E-03  0 -0.4065E-03  0 -0.2352E-03  0  0.1427E-03  0  0.1136E-03
   (  3, 17, 17)  (  3, 17, 17)  (  3, 17, 17)  (  5, 16, 17)  (  4, 21,  2)
  0  0.9808E-04  0 -0.9248E-04  0 -0.7301E-04  0 -0.5382E-04  0 -0.3847E-04
   (  4, 21,  2)  (  4, 16, 17)  (  4, 16, 17)  (  4, 16, 17)  (  4, 16, 17)
  0 -0.2524E-04  0 -0.2185E-04  0  0.1616E-04  0  0.1293E-04  0  0.1027E-04
   (  4, 16, 17)  (  4, 16, 17)  (  3, 21,  6)  (  3, 21,  6)  (  3, 21,  6)
  0  0.9606E-05  0  0.7786E-05  0  0.6718E-05  0  0.4935E-05  0  0.3171E-05
   (  3, 21,  6)  (  3, 21,  6)  (  3, 21,  6)  (  3, 21,  6)  (  3, 21,  6)
  0  0.1916E-05  0  0.9773E-06  0  0.8625E-06  0 -0.4814E-06  0 -0.4444E-06
   (  3, 21,  6)  (  3, 21,  6)  (  3, 21,  6)  (  5, 15, 17)  (  5, 15, 17)
  1  0.1257E-05  0 -0.1439E-05  0 -0.8765E-06  0  0.4376E-06  0 -0.3735E-06
   (  2,  2, 17)  (  5,  6,  1)  (  5,  6,  1)  (  2,  2, 17)  (  5,  3, 17)
  0 -0.3053E-06  0  0.2411E-06  0  0.1852E-06  0  0.1368E-06  0  0.8517E-07
   (  5,  3, 17)  (  5, 16, 17)  (  4, 18, 14)  (  4, 18, 14)  (  4, 17, 15)
  0  0.5539E-07  0  0.3399E-07  0  0.3231E-07  0  0.2753E-07  0 -0.2144E-07
   (  4, 17, 15)  (  5,  4, 17)  (  5,  4, 17)  (  5,  3, 17)  (  4,  4, 17)
  0  0.1911E-07  0  0.1591E-07  0  0.1285E-07  0  0.1030E-07  0 -0.6731E-08
   (  4, 21,  2)  (  2,  2,  1)  (  4, 21,  2)  (  4, 21,  2)  (  4, 20,  4)
  0 -0.4898E-08  0 -0.3999E-08  1 -0.4156E-08
   (  4, 20,  4)  (  4, 20,  4)  (  4, 20,  4)



 OUTPUT CONTROL FOR STRESS PERIOD   68   TIME STEP    1
    SAVE HEAD FOR ALL LAYERS
    SAVE DRAWDOWN FOR ALL LAYERS
    SAVE BUDGET
    PRINT BUDGET
 UBDSV1 SAVING "         STORAGE" ON UNIT   9 AT TIME STEP  1, STRESS PERIOD  68
 UBDSV2 SAVING "   CONSTANT HEAD" ON UNIT   9 AT TIME STEP  1, STRESS PERIOD  68
 UBDSV1 SAVING "FLOW RIGHT FACE " ON UNIT   9 AT TIME STEP  1, STRESS PERIOD  68
 UBDSV1 SAVING "FLOW FRONT FACE " ON UNIT   9 AT TIME STEP  1, STRESS PERIOD  68
 UBDSV1 SAVING "FLOW LOWER FACE " ON UNIT   9 AT TIME STEP  1, STRESS PERIOD  68
 UBDSV3 SAVING "        RECHARGE" ON UNIT   9 AT TIME STEP  1, STRESS PERIOD  68

 HEAD WILL BE SAVED ON UNIT   37 AT END OF TIME STEP    1, STRESS PERIOD   68

 DRAWDOWN WILL BE SAVED ON UNIT   38 AT END OF TIME STEP    1, STRESS PERIOD   68
1
  VOLUMETRIC BUDGET FOR ENTIRE MODEL AT END OF TIME STEP    1, STRESS PERIOD  68
  ------------------------------------------------------------------------------

     CUMULATIVE VOLUMES      L**3       RATES FOR THIS TIME STEP      L**3/T
     ------------------                 ------------------------

           IN:                                      IN:
           ---                                      ---
             STORAGE =       10431.1895               STORAGE =           0.0000
       CONSTANT HEAD =       17785.9648         CONSTANT HEAD =       2.3263E-03
            RECHARGE =         752.1449              RECHARGE =       9.7813E-05

            TOTAL IN =       28969.2988              TOTAL IN =       2.4241E-03

          OUT:                                     OUT:
          ----                                     ----
             STORAGE =        5687.0967               STORAGE =       2.0999E-03
       CONSTANT HEAD =       23282.9492         CONSTANT HEAD =       3.2425E-04
            RECHARGE =           0.0000              RECHARGE =           0.0000

           TOTAL OUT =       28970.0469             TOTAL OUT =       2.4242E-03

            IN - OUT =          -0.7480              IN - OUT =      -1.0058E-07

 PERCENT DISCREPANCY =          -0.00     PERCENT DISCREPANCY =          -0.00






         TIME SUMMARY AT END OF TIME STEP    1 IN STRESS PERIOD   68
                    SECONDS     MINUTES      HOURS       DAYS        YEARS
                    -----------------------------------------------------------
   TIME STEP LENGTH  86400.      1440.0      24.000      1.0000     2.73785E-03
 STRESS PERIOD TIME  86400.      1440.0      24.000      1.0000     2.73785E-03
         TOTAL TIME 7.68960E+06 1.28160E+05  2136.0      89.000     0.24367    
1
1
                            STRESS PERIOD NO.   69, LENGTH =   172800.0    
                            -----------------------------------------------

                              NUMBER OF TIME STEPS =     2

                               MULTIPLIER FOR DELT =     1.000

                            INITIAL TIME STEP SIZE =   86400.00    

 REUSING RECH FROM LAST STRESS PERIOD

 CHD NO.   LAYER   ROW   COL    START HEAD        END HEAD         IFACE           
 ----------------------------------------------------------------------------------
      1      4      1      1       109.5           109.5           0.000    
      2      5      1      1       109.5           109.5           0.000    
      3      4      1      2       109.5           109.5           0.000    
      4      5      1      2       109.5           109.5           0.000    
      5      4      1      3       109.5           109.5           0.000    
      6      5      1      3       109.5           109.5           0.000    
      7      4      1      4       109.5           109.5           0.000    
      8      5      1      4       109.5           109.5           0.000    
      9      4      1      5       109.5           109.5           0.000    
     10      5      1      5       109.5           109.5           0.000    
     11      4      1      6       109.5           109.5           0.000    
     12      5      1      6       109.5           109.5           0.000    
     13      4      1      7       109.5           109.5           0.000    
     14      5      1      7       109.5           109.5           0.000    
     15      4      1      8       109.5           109.5           0.000    
     16      5      1      8       109.5           109.5           0.000    
     17      4      1      9       109.5           109.5           0.000    
     18      5      1      9       109.5           109.5           0.000    
     19      4      1     10       109.5           109.5           0.000    
     20      5      1     10       109.5           109.5           0.000    
     21      4      1     11       109.5           109.5           0.000    
     22      5      1     11       109.5           109.5           0.000    
     23      4      1     12       109.5           109.5           0.000    
     24      5      1     12       109.5           109.5           0.000    
     25      4      1     13       109.5           109.5           0.000    
     26      5      1     13       109.5           109.5           0.000    
     27      4      1     14       109.5           109.5           0.000    
     28      5      1     14       109.5           109.5           0.000    
     29      4      1     15       109.5           109.5           0.000    
     30      5      1     15       109.5           109.5           0.000    
     31      4      1     16       109.5           109.5           0.000    
     32      5      1     16       109.5           109.5           0.000    
     33      4      1     17       109.5           109.5           0.000    
     34      5      1     17       109.5           109.5           0.000    
     35      4     17     17       109.4           109.4           0.000    
     36      5     17     17       109.4           109.4           0.000    
     37      4     18     17       109.4           109.4           0.000    
     38      5     18     17       109.4           109.4           0.000    
     39      4     18     16       109.4           109.4           0.000    
     40      5     18     16       109.4           109.4           0.000    
     41      4     19     16       109.4           109.4           0.000    
     42      5     19     16       109.4           109.4           0.000    
     43      4     19     15       109.4           109.4           0.000    
     44      5     19     15       109.4           109.4           0.000    
     45      4     20     15       109.4           109.4           0.000    
     46      5     20     15       109.4           109.4           0.000    
     47      4     20     14       109.4           109.4           0.000    
     48      5     20     14       109.4           109.4           0.000    
     49      4     20     13       109.4           109.4           0.000    
     50      5     20     13       109.4           109.4           0.000    
     51      4     20     12       109.4           109.4           0.000    
     52      5     20     12       109.4           109.4           0.000    
     53      4     20     11       109.4           109.4           0.000    
     54      5     20     11       109.4           109.4           0.000    
     55      4     21     11       109.4           109.4           0.000    
     56      5     21     11       109.4           109.4           0.000    
     57      4     21     10       109.4           109.4           0.000    
     58      5     21     10       109.4           109.4           0.000    
     59      4     21      9       109.4           109.4           0.000    
     60      5     21      9       109.4           109.4           0.000    
     61      4     21      8       109.4           109.4           0.000    
     62      5     21      8       109.4           109.4           0.000    
     63      4     21      7       109.4           109.4           0.000    
     64      5     21      7       109.4           109.4           0.000    
     65      4     21      6       109.4           109.4           0.000    
     66      5     21      6       109.4           109.4           0.000    
     67      4     21      5       109.4           109.4           0.000    
     68      5     21      5       109.4           109.4           0.000    
     69      4     22      5       109.4           109.4           0.000    
     70      5     22      5       109.4           109.4           0.000    
     71      4     22      4       109.4           109.4           0.000    
     72      5     22      4       109.4           109.4           0.000    
     73      4     22      3       109.4           109.3           0.000    
     74      5     22      3       109.4           109.3           0.000    
     75      4     22      2       109.4           109.3           0.000    
     76      5     22      2       109.4           109.3           0.000    
     77      4     22      1       109.4           109.3           0.000    
     78      5     22      1       109.4           109.3           0.000    


     78 TIME-VARIANT SPECIFIED-HEAD CELLS

 SOLVING FOR HEAD 


     3 CALLS TO PCG ROUTINE FOR TIME STEP   1 IN STRESS PERIOD   69
    46 TOTAL ITERATIONS

 MAXIMUM HEAD CHANGE FOR EACH ITERATION (1 INDICATES THE FIRST INNER ITERATION):

    HEAD CHANGE    HEAD CHANGE    HEAD CHANGE    HEAD CHANGE    HEAD CHANGE 
   LAYER,ROW,COL  LAYER,ROW,COL  LAYER,ROW,COL  LAYER,ROW,COL  LAYER,ROW,COL
 ---------------------------------------------------------------------------
  1 -0.3461E-01  0  0.2509E-01  0 -0.1792E-01  0  0.1575E-01  0 -0.2139E-01
   (  5, 21,  2)  (  5, 18,  1)  (  5, 16,  2)  (  5, 14,  2)  (  5, 19,  1)
  0  0.1170E-01  0  0.1129E-01  0  0.8958E-02  0 -0.6701E-02  0  0.4110E-02
   (  5, 13,  4)  (  5, 18,  1)  (  5, 17,  3)  (  5, 18,  1)  (  5, 15,  4)
  0 -0.2831E-02  0  0.2341E-02  0  0.1356E-02  0 -0.1474E-02  0  0.1006E-02
   (  5, 14,  4)  (  5, 16,  3)  (  5, 17,  2)  (  5, 15,  3)  (  5, 20,  1)
  0 -0.7164E-03  0  0.6993E-03  0  0.5270E-03  0  0.6069E-03  0  0.2514E-03
   (  5, 18,  1)  (  5, 18,  2)  (  5, 16,  3)  (  5, 19,  3)  (  5, 17,  4)
  0 -0.2193E-03  0  0.1385E-03  0 -0.1305E-03  0  0.1149E-03  0 -0.5870E-04
   (  5, 17,  5)  (  5, 17,  3)  (  5, 16,  2)  (  5, 19,  1)  (  5, 17,  2)
  0 -0.5913E-04  0  0.3805E-04  0  0.2437E-04  0 -0.1565E-04  0  0.1349E-04
   (  5, 20,  3)  (  5, 15,  4)  (  5, 18,  1)  (  5, 19,  2)  (  5,  6,  1)
  1  0.1902E-04  0  0.1892E-04  0 -0.1628E-04  0  0.2154E-04  0  0.1389E-04
   (  5, 11,  6)  (  5, 17,  1)  (  5, 17,  2)  (  5, 14,  2)  (  5, 12,  4)
  0 -0.1351E-04  0  0.1396E-04  0 -0.8234E-05  0  0.6789E-05  0 -0.3754E-05
   (  5, 19,  1)  (  5, 20,  1)  (  5, 20,  1)  (  5, 20,  1)  (  5, 15,  1)
  0 -0.3250E-05  0  0.1969E-05  0  0.1237E-05  0 -0.1109E-05  0  0.8717E-06
   (  5, 19,  4)  (  5, 16,  3)  (  5, 14,  1)  (  5, 16,  2)  (  5, 15,  4)
  1 -0.8966E-06
   (  5, 18,  1)

 MAXIMUM RESIDUAL FOR EACH ITERATION (1 INDICATES THE FIRST INNER ITERATION):

    RESIDUAL       RESIDUAL       RESIDUAL       RESIDUAL       RESIDUAL    
   LAYER,ROW,COL  LAYER,ROW,COL  LAYER,ROW,COL  LAYER,ROW,COL  LAYER,ROW,COL
 ---------------------------------------------------------------------------
  1  0.9222E-03  0  0.8241E-03  0  0.7469E-03  0  0.6388E-03  0  0.5037E-03
   (  3, 17, 17)  (  3, 17, 17)  (  3, 17, 17)  (  3, 17, 17)  (  3, 17, 17)
  0  0.3677E-03  0  0.2286E-03  0  0.1313E-03  0  0.7536E-04  0  0.4494E-04
   (  3, 17, 17)  (  3, 20, 11)  (  3, 20, 11)  (  3, 20, 11)  (  3, 20, 11)
  0  0.4100E-04  0  0.3355E-04  0  0.3119E-04  0  0.2615E-04  0  0.1993E-04
   (  4, 16, 17)  (  4, 16, 17)  (  4, 16, 17)  (  4, 16, 17)  (  4, 16, 17)
  0  0.1547E-04  0  0.1346E-04  0  0.9698E-05  0  0.6886E-05  0  0.4672E-05
   (  4, 16, 17)  (  4, 16, 17)  (  4, 16, 17)  (  4, 16, 17)  (  4, 16, 17)
  0  0.3192E-05  0  0.2542E-05  0 -0.2148E-05  0 -0.1835E-05  0 -0.1148E-05
   (  4, 16, 17)  (  4, 16, 17)  (  3, 21,  6)  (  3, 21,  6)  (  3, 21,  6)
  0 -0.6974E-06  0 -0.4148E-06  0 -0.2642E-06  0 -0.2306E-06  0 -0.1413E-06
   (  3, 21,  6)  (  3, 21,  5)  (  3, 21,  5)  (  3, 21,  5)  (  3, 21,  5)
  1 -0.1401E-06  0 -0.1303E-06  0 -0.1102E-06  0 -0.8965E-07  0 -0.7658E-07
   (  3, 21,  5)  (  3, 21,  5)  (  3, 21,  5)  (  3, 20, 11)  (  3, 20, 11)
  0 -0.6318E-07  0 -0.4796E-07  0 -0.3213E-07  0  0.2648E-07  0 -0.1849E-07
   (  3, 20, 11)  (  3, 20, 11)  (  3, 20, 11)  (  4, 20,  2)  (  4, 21,  1)
  0  0.1897E-07  0  0.1631E-07  0  0.1286E-07  0  0.1240E-07  0  0.8930E-08
   (  4, 20,  2)  (  4, 20,  2)  (  4, 20,  2)  (  4, 20,  2)  (  4, 20,  2)
  1  0.9013E-08
   (  4, 20,  2)



 OUTPUT CONTROL FOR STRESS PERIOD   69   TIME STEP    1
    SAVE HEAD FOR ALL LAYERS
    SAVE DRAWDOWN FOR ALL LAYERS
    SAVE BUDGET
    PRINT BUDGET
 UBDSV1 SAVING "         STORAGE" ON UNIT   9 AT TIME STEP  1, STRESS PERIOD  69
 UBDSV2 SAVING "   CONSTANT HEAD" ON UNIT   9 AT TIME STEP  1, STRESS PERIOD  69
 UBDSV1 SAVING "FLOW RIGHT FACE " ON UNIT   9 AT TIME STEP  1, STRESS PERIOD  69
 UBDSV1 SAVING "FLOW FRONT FACE " ON UNIT   9 AT TIME STEP  1, STRESS PERIOD  69
 UBDSV1 SAVING "FLOW LOWER FACE " ON UNIT   9 AT TIME STEP  1, STRESS PERIOD  69
 UBDSV3 SAVING "        RECHARGE" ON UNIT   9 AT TIME STEP  1, STRESS PERIOD  69

 HEAD WILL BE SAVED ON UNIT   37 AT END OF TIME STEP    1, STRESS PERIOD   69

 DRAWDOWN WILL BE SAVED ON UNIT   38 AT END OF TIME STEP    1, STRESS PERIOD   69
1
  VOLUMETRIC BUDGET FOR ENTIRE MODEL AT END OF TIME STEP    1, STRESS PERIOD  69
  ------------------------------------------------------------------------------

     CUMULATIVE VOLUMES      L**3       RATES FOR THIS TIME STEP      L**3/T
     ------------------                 ------------------------

           IN:                                      IN:
           ---                                      ---
             STORAGE =       10434.2881               STORAGE =       3.5864E-05
       CONSTANT HEAD =       17928.4062         CONSTANT HEAD =       1.6486E-03
            RECHARGE =         760.5959              RECHARGE =       9.7813E-05

            TOTAL IN =       29123.2910              TOTAL IN =       1.7823E-03

          OUT:                                     OUT:
          ----                                     ----
             STORAGE =        5727.5742               STORAGE =       4.6849E-04
       CONSTANT HEAD =       23396.4707         CONSTANT HEAD =       1.3139E-03
            RECHARGE =           0.0000              RECHARGE =           0.0000

           TOTAL OUT =       29124.0449             TOTAL OUT =       1.7824E-03

            IN - OUT =          -0.7539              IN - OUT =      -8.2771E-08

 PERCENT DISCREPANCY =          -0.00     PERCENT DISCREPANCY =          -0.00






         TIME SUMMARY AT END OF TIME STEP    1 IN STRESS PERIOD   69
                    SECONDS     MINUTES      HOURS       DAYS        YEARS
                    -----------------------------------------------------------
   TIME STEP LENGTH  86400.      1440.0      24.000      1.0000     2.73785E-03
 STRESS PERIOD TIME  86400.      1440.0      24.000      1.0000     2.73785E-03
         TOTAL TIME 7.77600E+06 1.29600E+05  2160.0      90.000     0.24641    
1

 SOLVING FOR HEAD 
     3 CALLS TO PCG ROUTINE FOR TIME STEP   2 IN STRESS PERIOD   69
    44 TOTAL ITERATIONS

 MAXIMUM HEAD CHANGE FOR EACH ITERATION (1 INDICATES THE FIRST INNER ITERATION):

    HEAD CHANGE    HEAD CHANGE    HEAD CHANGE    HEAD CHANGE    HEAD CHANGE 
   LAYER,ROW,COL  LAYER,ROW,COL  LAYER,ROW,COL  LAYER,ROW,COL  LAYER,ROW,COL
 ---------------------------------------------------------------------------
  1 -0.3175E-01  0  0.2128E-01  0 -0.1779E-01  0  0.1367E-01  0 -0.2028E-01
   (  5, 21,  2)  (  5, 18,  1)  (  5, 16,  2)  (  5, 15,  3)  (  5, 19,  1)
  0 -0.1060E-01  0  0.1014E-01  0  0.7805E-02  0 -0.6246E-02  0  0.3943E-02
   (  5, 20,  1)  (  5, 18,  1)  (  5, 17,  3)  (  5, 18,  1)  (  5, 18,  4)
  0 -0.2878E-02  0  0.2210E-02  0  0.1241E-02  0 -0.1370E-02  0 -0.9879E-03
   (  5, 17,  3)  (  5, 13,  5)  (  5, 17,  2)  (  5, 15,  3)  (  5, 19,  3)
  0  0.8182E-03  0  0.5993E-03  0  0.5275E-03  0  0.5599E-03  0  0.2204E-03
   (  5, 18,  2)  (  5, 13,  2)  (  5, 16,  1)  (  5, 19,  3)  (  5, 17,  2)
  0 -0.1680E-03  0  0.1325E-03  0  0.1178E-03  0 -0.6507E-04  0  0.6323E-04
   (  5, 17,  5)  (  5, 19,  1)  (  5, 16,  1)  (  5, 17,  1)  (  5, 20,  3)
  0 -0.5211E-04  0  0.3523E-04  0  0.3603E-04  0 -0.1950E-04  0  0.1478E-04
   (  5, 20,  3)  (  5, 19,  2)  (  5, 15,  4)  (  5,  6,  1)  (  5,  6,  1)
  1  0.9193E-05  0 -0.1048E-04  0  0.9180E-05  0  0.1200E-04  0  0.5885E-05
   (  5, 17,  2)  (  5, 18,  3)  (  5, 15,  2)  (  5,  6,  1)  (  5, 18,  2)
  0  0.5898E-05  0 -0.4272E-05  0 -0.5072E-05  0  0.3301E-05  0 -0.2575E-05
   (  5, 16,  3)  (  5, 17,  4)  (  5, 19,  1)  (  5, 15,  4)  (  5, 16,  5)
  0 -0.1549E-05  0  0.1157E-05  0 -0.8840E-06  1  0.6560E-06
   (  5, 12,  5)  (  5, 16,  3)  (  5, 17,  2)  (  5, 18,  2)

 MAXIMUM RESIDUAL FOR EACH ITERATION (1 INDICATES THE FIRST INNER ITERATION):

    RESIDUAL       RESIDUAL       RESIDUAL       RESIDUAL       RESIDUAL    
   LAYER,ROW,COL  LAYER,ROW,COL  LAYER,ROW,COL  LAYER,ROW,COL  LAYER,ROW,COL
 ---------------------------------------------------------------------------
  1  0.9378E-03  0  0.8479E-03  0  0.7674E-03  0  0.6561E-03  0  0.5220E-03
   (  3, 17, 17)  (  3, 17, 17)  (  3, 17, 17)  (  3, 17, 17)  (  3, 17, 17)
  0  0.3920E-03  0  0.2604E-03  0  0.1608E-03  0  0.9993E-04  0  0.6473E-04
   (  3, 17, 17)  (  3, 17, 17)  (  3, 20, 11)  (  3, 20, 11)  (  3, 20, 11)
  0  0.4300E-04  0  0.3322E-04  0  0.3122E-04  0  0.2596E-04  0  0.2030E-04
   (  3, 20, 11)  (  4, 16, 17)  (  4, 16, 17)  (  4, 16, 17)  (  4, 16, 17)
  0  0.1763E-04  0  0.1388E-04  0  0.1003E-04  0  0.7181E-05  0  0.4931E-05
   (  4, 16, 17)  (  4, 16, 17)  (  4, 16, 17)  (  4, 16, 17)  (  4, 16, 17)
  0  0.3526E-05  0  0.2971E-05  0  0.2177E-05  0  0.1998E-05  0  0.1222E-05
   (  4, 16, 17)  (  4, 16, 17)  (  4, 16, 17)  (  4, 16, 17)  (  4, 16, 17)
  0 -0.7491E-06  0 -0.5973E-06  0 -0.3788E-06  0 -0.2083E-06  0 -0.1319E-06
   (  3, 21,  6)  (  3, 21,  6)  (  3, 21,  6)  (  3, 21,  5)  (  3, 21,  5)
  1 -0.1427E-06  0 -0.1289E-06  0 -0.1189E-06  0 -0.8488E-07  0 -0.7455E-07
   (  3, 21,  5)  (  3, 21,  5)  (  3, 21,  5)  (  3, 21,  5)  (  3, 21,  5)
  0  0.4834E-07  0  0.4242E-07  0  0.3063E-07  0  0.2473E-07  0  0.1855E-07
   (  4, 16, 17)  (  4, 16, 17)  (  4, 16, 17)  (  4, 16, 17)  (  4, 20,  2)
  0  0.1635E-07  0  0.1396E-07  0  0.1370E-07  1  0.1251E-07
   (  4, 20,  2)  (  4, 20,  2)  (  4, 20,  2)  (  4, 20,  2)



 OUTPUT CONTROL FOR STRESS PERIOD   69   TIME STEP    2
    SAVE HEAD FOR ALL LAYERS
    SAVE DRAWDOWN FOR ALL LAYERS
    SAVE BUDGET
    PRINT BUDGET
 UBDSV1 SAVING "         STORAGE" ON UNIT   9 AT TIME STEP  2, STRESS PERIOD  69
 UBDSV2 SAVING "   CONSTANT HEAD" ON UNIT   9 AT TIME STEP  2, STRESS PERIOD  69
 UBDSV1 SAVING "FLOW RIGHT FACE " ON UNIT   9 AT TIME STEP  2, STRESS PERIOD  69
 UBDSV1 SAVING "FLOW FRONT FACE " ON UNIT   9 AT TIME STEP  2, STRESS PERIOD  69
 UBDSV1 SAVING "FLOW LOWER FACE " ON UNIT   9 AT TIME STEP  2, STRESS PERIOD  69
 UBDSV3 SAVING "        RECHARGE" ON UNIT   9 AT TIME STEP  2, STRESS PERIOD  69

 HEAD WILL BE SAVED ON UNIT   37 AT END OF TIME STEP    2, STRESS PERIOD   69

 DRAWDOWN WILL BE SAVED ON UNIT   38 AT END OF TIME STEP    2, STRESS PERIOD   69
1
  VOLUMETRIC BUDGET FOR ENTIRE MODEL AT END OF TIME STEP    2, STRESS PERIOD  69
  ------------------------------------------------------------------------------

     CUMULATIVE VOLUMES      L**3       RATES FOR THIS TIME STEP      L**3/T
     ------------------                 ------------------------

           IN:                                      IN:
           ---                                      ---
             STORAGE =       10445.4170               STORAGE =       1.2880E-04
       CONSTANT HEAD =       18069.6602         CONSTANT HEAD =       1.6349E-03
            RECHARGE =         769.0470              RECHARGE =       9.7813E-05

            TOTAL IN =       29284.1250              TOTAL IN =       1.8615E-03

          OUT:                                     OUT:
          ----                                     ----
             STORAGE =        5734.9248               STORAGE =       8.5076E-05
       CONSTANT HEAD =       23549.9609         CONSTANT HEAD =       1.7765E-03
            RECHARGE =           0.0000              RECHARGE =           0.0000

           TOTAL OUT =       29284.8867             TOTAL OUT =       1.8616E-03

            IN - OUT =          -0.7617              IN - OUT =      -8.6147E-08

 PERCENT DISCREPANCY =          -0.00     PERCENT DISCREPANCY =          -0.00






         TIME SUMMARY AT END OF TIME STEP    2 IN STRESS PERIOD   69
                    SECONDS     MINUTES      HOURS       DAYS        YEARS
                    -----------------------------------------------------------
   TIME STEP LENGTH  86400.      1440.0      24.000      1.0000     2.73785E-03
 STRESS PERIOD TIME 1.72800E+05  2880.0      48.000      2.0000     5.47570E-03
         TOTAL TIME 7.86240E+06 1.31040E+05  2184.0      91.000     0.24914    
1
1
                            STRESS PERIOD NO.   70, LENGTH =   86400.00    
                            -----------------------------------------------

                              NUMBER OF TIME STEPS =     1

                               MULTIPLIER FOR DELT =     1.000

                            INITIAL TIME STEP SIZE =   86400.00    

 REUSING RECH FROM LAST STRESS PERIOD

 CHD NO.   LAYER   ROW   COL    START HEAD        END HEAD         IFACE           
 ----------------------------------------------------------------------------------
      1      4      1      1       109.5           109.6           0.000    
      2      5      1      1       109.5           109.6           0.000    
      3      4      1      2       109.5           109.6           0.000    
      4      5      1      2       109.5           109.6           0.000    
      5      4      1      3       109.5           109.6           0.000    
      6      5      1      3       109.5           109.6           0.000    
      7      4      1      4       109.5           109.6           0.000    
      8      5      1      4       109.5           109.6           0.000    
      9      4      1      5       109.5           109.6           0.000    
     10      5      1      5       109.5           109.6           0.000    
     11      4      1      6       109.5           109.6           0.000    
     12      5      1      6       109.5           109.6           0.000    
     13      4      1      7       109.5           109.6           0.000    
     14      5      1      7       109.5           109.6           0.000    
     15      4      1      8       109.5           109.6           0.000    
     16      5      1      8       109.5           109.6           0.000    
     17      4      1      9       109.5           109.6           0.000    
     18      5      1      9       109.5           109.6           0.000    
     19      4      1     10       109.5           109.6           0.000    
     20      5      1     10       109.5           109.6           0.000    
     21      4      1     11       109.5           109.6           0.000    
     22      5      1     11       109.5           109.6           0.000    
     23      4      1     12       109.5           109.6           0.000    
     24      5      1     12       109.5           109.6           0.000    
     25      4      1     13       109.5           109.6           0.000    
     26      5      1     13       109.5           109.6           0.000    
     27      4      1     14       109.5           109.6           0.000    
     28      5      1     14       109.5           109.6           0.000    
     29      4      1     15       109.5           109.6           0.000    
     30      5      1     15       109.5           109.6           0.000    
     31      4      1     16       109.5           109.6           0.000    
     32      5      1     16       109.5           109.6           0.000    
     33      4      1     17       109.5           109.6           0.000    
     34      5      1     17       109.5           109.6           0.000    
     35      4     17     17       109.4           109.5           0.000    
     36      5     17     17       109.4           109.5           0.000    
     37      4     18     17       109.4           109.5           0.000    
     38      5     18     17       109.4           109.5           0.000    
     39      4     18     16       109.4           109.5           0.000    
     40      5     18     16       109.4           109.5           0.000    
     41      4     19     16       109.4           109.5           0.000    
     42      5     19     16       109.4           109.5           0.000    
     43      4     19     15       109.4           109.5           0.000    
     44      5     19     15       109.4           109.5           0.000    
     45      4     20     15       109.4           109.5           0.000    
     46      5     20     15       109.4           109.5           0.000    
     47      4     20     14       109.4           109.5           0.000    
     48      5     20     14       109.4           109.5           0.000    
     49      4     20     13       109.4           109.5           0.000    
     50      5     20     13       109.4           109.5           0.000    
     51      4     20     12       109.4           109.5           0.000    
     52      5     20     12       109.4           109.5           0.000    
     53      4     20     11       109.4           109.5           0.000    
     54      5     20     11       109.4           109.5           0.000    
     55      4     21     11       109.4           109.5           0.000    
     56      5     21     11       109.4           109.5           0.000    
     57      4     21     10       109.4           109.5           0.000    
     58      5     21     10       109.4           109.5           0.000    
     59      4     21      9       109.4           109.5           0.000    
     60      5     21      9       109.4           109.5           0.000    
     61      4     21      8       109.4           109.5           0.000    
     62      5     21      8       109.4           109.5           0.000    
     63      4     21      7       109.4           109.5           0.000    
     64      5     21      7       109.4           109.5           0.000    
     65      4     21      6       109.4           109.5           0.000    
     66      5     21      6       109.4           109.5           0.000    
     67      4     21      5       109.4           109.5           0.000    
     68      5     21      5       109.4           109.5           0.000    
     69      4     22      5       109.4           109.5           0.000    
     70      5     22      5       109.4           109.5           0.000    
     71      4     22      4       109.4           109.5           0.000    
     72      5     22      4       109.4           109.5           0.000    
     73      4     22      3       109.3           109.5           0.000    
     74      5     22      3       109.3           109.5           0.000    
     75      4     22      2       109.3           109.5           0.000    
     76      5     22      2       109.3           109.5           0.000    
     77      4     22      1       109.3           109.5           0.000    
     78      5     22      1       109.3           109.5           0.000    


     78 TIME-VARIANT SPECIFIED-HEAD CELLS

 SOLVING FOR HEAD 


     4 CALLS TO PCG ROUTINE FOR TIME STEP   1 IN STRESS PERIOD   70
    62 TOTAL ITERATIONS

 MAXIMUM HEAD CHANGE FOR EACH ITERATION (1 INDICATES THE FIRST INNER ITERATION):

    HEAD CHANGE    HEAD CHANGE    HEAD CHANGE    HEAD CHANGE    HEAD CHANGE 
   LAYER,ROW,COL  LAYER,ROW,COL  LAYER,ROW,COL  LAYER,ROW,COL  LAYER,ROW,COL
 ---------------------------------------------------------------------------
  1  0.3352      0 -0.2218      0  0.1938      0  0.1511      0  0.2065    
   (  5, 21,  2)  (  5, 17,  1)  (  5, 16,  2)  (  5, 17,  1)  (  5, 19,  1)
  0  0.1243      0 -0.1065      0 -0.7969E-01  0  0.7133E-01  0 -0.4106E-01
   (  5, 20,  1)  (  5, 18,  1)  (  5, 19,  1)  (  5, 18,  1)  (  5, 18,  4)
  0  0.2940E-01  0  0.2112E-01  0 -0.2655E-01  0  0.1518E-01  0  0.1052E-01
   (  5, 17,  3)  (  5, 17,  2)  (  5, 16,  3)  (  5, 12,  5)  (  5, 19,  3)
  0 -0.8055E-02  0  0.6151E-02  0 -0.5225E-02  0 -0.5918E-02  0 -0.2018E-02
   (  5, 18,  2)  (  5, 18,  1)  (  5, 16,  1)  (  5, 19,  3)  (  5, 17,  2)
  0  0.2063E-02  0 -0.1022E-02  0  0.1355E-02  0  0.7401E-03  0 -0.6869E-03
   (  5, 17,  5)  (  5, 15,  1)  (  5, 16,  2)  (  5, 19,  1)  (  5, 20,  3)
  0  0.5549E-03  0 -0.3001E-03  0 -0.3612E-03  0  0.2023E-03  0 -0.1272E-03
   (  5, 20,  3)  (  5, 19,  2)  (  5, 15,  4)  (  5,  6,  1)  (  5,  6,  1)
  1  0.5144E-03  0 -0.7191E-03  0  0.5430E-03  0 -0.3809E-03  0  0.2301E-03
   (  5, 14,  1)  (  5, 17,  2)  (  5, 17,  2)  (  5,  6,  1)  (  5, 19,  1)
  0 -0.1699E-03  0 -0.9057E-04  0 -0.6624E-04  0  0.5686E-04  0 -0.4701E-04
   (  5, 18,  1)  (  5, 14,  4)  (  5,  6,  1)  (  5, 16,  4)  (  5, 17,  5)
  0  0.3442E-04  0 -0.2411E-04  0 -0.2151E-04  0 -0.1491E-04  0 -0.1296E-04
   (  5, 14,  1)  (  5, 16,  1)  (  5, 12,  5)  (  5, 19,  4)  (  5, 17,  2)
  0 -0.1068E-04  0 -0.8575E-05  0  0.4315E-05  0 -0.4866E-05  0  0.2513E-05
   (  5, 19,  3)  (  5, 17,  1)  (  5, 18,  1)  (  5, 20,  2)  (  5, 21,  1)
  0  0.1807E-05  0 -0.2392E-05  0  0.1789E-05  0 -0.1203E-05  0  0.9511E-06
   (  5, 15,  2)  (  5, 19,  1)  (  5, 17,  5)  (  5, 18,  1)  (  5, 19,  1)
  1 -0.2550E-05  0  0.2770E-05  0 -0.2681E-05  0  0.2391E-05  0  0.1714E-05
   (  5, 20,  1)  (  5, 18,  1)  (  5, 17,  1)  (  5, 15,  1)  (  5, 20,  1)
  0  0.7087E-06  1  0.5625E-06
   (  5, 14,  3)  (  5, 18,  2)

 MAXIMUM RESIDUAL FOR EACH ITERATION (1 INDICATES THE FIRST INNER ITERATION):

    RESIDUAL       RESIDUAL       RESIDUAL       RESIDUAL       RESIDUAL    
   LAYER,ROW,COL  LAYER,ROW,COL  LAYER,ROW,COL  LAYER,ROW,COL  LAYER,ROW,COL
 ---------------------------------------------------------------------------
  1 -0.9941E-02  0 -0.8972E-02  0 -0.8081E-02  0 -0.6885E-02  0 -0.5517E-02
   (  3, 17, 17)  (  3, 17, 17)  (  3, 17, 17)  (  3, 17, 17)  (  3, 17, 17)
  0 -0.4161E-02  0 -0.2815E-02  0 -0.1715E-02  0 -0.1024E-02  0 -0.6562E-03
   (  3, 17, 17)  (  3, 17, 17)  (  3, 17, 17)  (  3, 20, 11)  (  3, 20, 11)
  0 -0.4291E-03  0 -0.3856E-03  0 -0.3302E-03  0 -0.2634E-03  0 -0.2093E-03
   (  3, 20, 11)  (  4, 16, 17)  (  4, 16, 17)  (  4, 16, 17)  (  4, 16, 17)
  0 -0.1845E-03  0 -0.1444E-03  0 -0.1066E-03  0 -0.7669E-04  0 -0.5298E-04
   (  4, 16, 17)  (  4, 16, 17)  (  4, 16, 17)  (  4, 16, 17)  (  4, 16, 17)
  0 -0.3734E-04  0 -0.3474E-04  0 -0.2448E-04  0 -0.2099E-04  0 -0.1344E-04
   (  4, 16, 17)  (  4, 16, 17)  (  4, 16, 17)  (  4, 16, 17)  (  4, 16, 17)
  0 -0.8247E-05  0 -0.7116E-05  0  0.4018E-05  0  0.2001E-05  0 -0.1402E-05
   (  4, 16, 17)  (  4, 16, 17)  (  3, 21,  6)  (  3, 21,  6)  (  3, 17, 17)
  1 -0.4181E-05  0  0.2804E-05  0 -0.2035E-05  0 -0.1269E-05  0 -0.1124E-05
   (  3, 20,  4)  (  5,  6,  1)  (  4,  6,  2)  (  3, 17, 17)  (  3, 17, 17)
  0 -0.8411E-06  0 -0.7299E-06  0 -0.5203E-06  0 -0.4222E-06  0 -0.3069E-06
   (  3, 17, 17)  (  3, 17, 17)  (  3, 17, 17)  (  3, 17, 17)  (  3, 17, 17)
  0 -0.2271E-06  0 -0.2046E-06  0 -0.1512E-06  0 -0.1116E-06  0 -0.9265E-07
   (  3, 17, 17)  (  3, 17, 17)  (  3, 17, 17)  (  3, 17, 17)  (  4, 18, 14)
  0 -0.7633E-07  0 -0.5415E-07  0 -0.4569E-07  0 -0.3141E-07  0 -0.2081E-07
   (  4, 18, 14)  (  4, 18, 14)  (  4, 18, 14)  (  4, 18, 14)  (  4, 20,  6)
  0 -0.1969E-07  0 -0.1463E-07  0 -0.9840E-08  0 -0.8524E-08  0 -0.8377E-08
   (  4, 20,  6)  (  4, 20,  6)  (  4, 20,  6)  (  4, 21,  4)  (  4, 21,  2)
  1  0.1614E-07  0  0.1181E-07  0  0.8271E-08  0 -0.5011E-08  0  0.3482E-08
   (  3, 21,  4)  (  3, 21,  4)  (  3, 21,  4)  (  5, 20,  1)  (  4,  5, 17)
  0  0.3015E-08  1  0.2687E-08
   (  4,  5, 17)  (  4,  5, 17)



 OUTPUT CONTROL FOR STRESS PERIOD   70   TIME STEP    1
    SAVE HEAD FOR ALL LAYERS
    SAVE DRAWDOWN FOR ALL LAYERS
    SAVE BUDGET
    PRINT BUDGET
 UBDSV1 SAVING "         STORAGE" ON UNIT   9 AT TIME STEP  1, STRESS PERIOD  70
 UBDSV2 SAVING "   CONSTANT HEAD" ON UNIT   9 AT TIME STEP  1, STRESS PERIOD  70
 UBDSV1 SAVING "FLOW RIGHT FACE " ON UNIT   9 AT TIME STEP  1, STRESS PERIOD  70
 UBDSV1 SAVING "FLOW FRONT FACE " ON UNIT   9 AT TIME STEP  1, STRESS PERIOD  70
 UBDSV1 SAVING "FLOW LOWER FACE " ON UNIT   9 AT TIME STEP  1, STRESS PERIOD  70
 UBDSV3 SAVING "        RECHARGE" ON UNIT   9 AT TIME STEP  1, STRESS PERIOD  70

 HEAD WILL BE SAVED ON UNIT   37 AT END OF TIME STEP    1, STRESS PERIOD   70

 DRAWDOWN WILL BE SAVED ON UNIT   38 AT END OF TIME STEP    1, STRESS PERIOD   70
1
  VOLUMETRIC BUDGET FOR ENTIRE MODEL AT END OF TIME STEP    1, STRESS PERIOD  70
  ------------------------------------------------------------------------------

     CUMULATIVE VOLUMES      L**3       RATES FOR THIS TIME STEP      L**3/T
     ------------------                 ------------------------

           IN:                                      IN:
           ---                                      ---
             STORAGE =       10445.4170               STORAGE =           0.0000
       CONSTANT HEAD =       18326.8438         CONSTANT HEAD =       2.9767E-03
            RECHARGE =         777.4980              RECHARGE =       9.7813E-05

            TOTAL IN =       29549.7598              TOTAL IN =       3.0745E-03

          OUT:                                     OUT:
          ----                                     ----
             STORAGE =        5999.5996               STORAGE =       3.0634E-03
       CONSTANT HEAD =       23550.9277         CONSTANT HEAD =       1.1187E-05
            RECHARGE =           0.0000              RECHARGE =           0.0000

           TOTAL OUT =       29550.5273             TOTAL OUT =       3.0746E-03

            IN - OUT =          -0.7676              IN - OUT =      -7.4506E-08

 PERCENT DISCREPANCY =          -0.00     PERCENT DISCREPANCY =          -0.00






         TIME SUMMARY AT END OF TIME STEP    1 IN STRESS PERIOD   70
                    SECONDS     MINUTES      HOURS       DAYS        YEARS
                    -----------------------------------------------------------
   TIME STEP LENGTH  86400.      1440.0      24.000      1.0000     2.73785E-03
 STRESS PERIOD TIME  86400.      1440.0      24.000      1.0000     2.73785E-03
         TOTAL TIME 7.94880E+06 1.32480E+05  2208.0      92.000     0.25188    
1
1
                            STRESS PERIOD NO.   71, LENGTH =   86400.00    
                            -----------------------------------------------

                              NUMBER OF TIME STEPS =     1

                               MULTIPLIER FOR DELT =     1.000

                            INITIAL TIME STEP SIZE =   86400.00    

 REUSING RECH FROM LAST STRESS PERIOD

 CHD NO.   LAYER   ROW   COL    START HEAD        END HEAD         IFACE           
 ----------------------------------------------------------------------------------
      1      4      1      1       109.6           109.7           0.000    
      2      5      1      1       109.6           109.7           0.000    
      3      4      1      2       109.6           109.7           0.000    
      4      5      1      2       109.6           109.7           0.000    
      5      4      1      3       109.6           109.7           0.000    
      6      5      1      3       109.6           109.7           0.000    
      7      4      1      4       109.6           109.7           0.000    
      8      5      1      4       109.6           109.7           0.000    
      9      4      1      5       109.6           109.7           0.000    
     10      5      1      5       109.6           109.7           0.000    
     11      4      1      6       109.6           109.7           0.000    
     12      5      1      6       109.6           109.7           0.000    
     13      4      1      7       109.6           109.7           0.000    
     14      5      1      7       109.6           109.7           0.000    
     15      4      1      8       109.6           109.7           0.000    
     16      5      1      8       109.6           109.7           0.000    
     17      4      1      9       109.6           109.7           0.000    
     18      5      1      9       109.6           109.7           0.000    
     19      4      1     10       109.6           109.7           0.000    
     20      5      1     10       109.6           109.7           0.000    
     21      4      1     11       109.6           109.7           0.000    
     22      5      1     11       109.6           109.7           0.000    
     23      4      1     12       109.6           109.7           0.000    
     24      5      1     12       109.6           109.7           0.000    
     25      4      1     13       109.6           109.7           0.000    
     26      5      1     13       109.6           109.7           0.000    
     27      4      1     14       109.6           109.7           0.000    
     28      5      1     14       109.6           109.7           0.000    
     29      4      1     15       109.6           109.7           0.000    
     30      5      1     15       109.6           109.7           0.000    
     31      4      1     16       109.6           109.7           0.000    
     32      5      1     16       109.6           109.7           0.000    
     33      4      1     17       109.6           109.7           0.000    
     34      5      1     17       109.6           109.7           0.000    
     35      4     17     17       109.5           109.7           0.000    
     36      5     17     17       109.5           109.7           0.000    
     37      4     18     17       109.5           109.7           0.000    
     38      5     18     17       109.5           109.7           0.000    
     39      4     18     16       109.5           109.7           0.000    
     40      5     18     16       109.5           109.7           0.000    
     41      4     19     16       109.5           109.7           0.000    
     42      5     19     16       109.5           109.7           0.000    
     43      4     19     15       109.5           109.7           0.000    
     44      5     19     15       109.5           109.7           0.000    
     45      4     20     15       109.5           109.7           0.000    
     46      5     20     15       109.5           109.7           0.000    
     47      4     20     14       109.5           109.7           0.000    
     48      5     20     14       109.5           109.7           0.000    
     49      4     20     13       109.5           109.7           0.000    
     50      5     20     13       109.5           109.7           0.000    
     51      4     20     12       109.5           109.7           0.000    
     52      5     20     12       109.5           109.7           0.000    
     53      4     20     11       109.5           109.7           0.000    
     54      5     20     11       109.5           109.7           0.000    
     55      4     21     11       109.5           109.7           0.000    
     56      5     21     11       109.5           109.7           0.000    
     57      4     21     10       109.5           109.7           0.000    
     58      5     21     10       109.5           109.7           0.000    
     59      4     21      9       109.5           109.7           0.000    
     60      5     21      9       109.5           109.7           0.000    
     61      4     21      8       109.5           109.7           0.000    
     62      5     21      8       109.5           109.7           0.000    
     63      4     21      7       109.5           109.7           0.000    
     64      5     21      7       109.5           109.7           0.000    
     65      4     21      6       109.5           109.7           0.000    
     66      5     21      6       109.5           109.7           0.000    
     67      4     21      5       109.5           109.7           0.000    
     68      5     21      5       109.5           109.7           0.000    
     69      4     22      5       109.5           109.7           0.000    
     70      5     22      5       109.5           109.7           0.000    
     71      4     22      4       109.5           109.7           0.000    
     72      5     22      4       109.5           109.7           0.000    
     73      4     22      3       109.5           109.7           0.000    
     74      5     22      3       109.5           109.7           0.000    
     75      4     22      2       109.5           109.7           0.000    
     76      5     22      2       109.5           109.7           0.000    
     77      4     22      1       109.5           109.7           0.000    
     78      5     22      1       109.5           109.7           0.000    


     78 TIME-VARIANT SPECIFIED-HEAD CELLS

 SOLVING FOR HEAD 


     4 CALLS TO PCG ROUTINE FOR TIME STEP   1 IN STRESS PERIOD   71
    65 TOTAL ITERATIONS

 MAXIMUM HEAD CHANGE FOR EACH ITERATION (1 INDICATES THE FIRST INNER ITERATION):

    HEAD CHANGE    HEAD CHANGE    HEAD CHANGE    HEAD CHANGE    HEAD CHANGE 
   LAYER,ROW,COL  LAYER,ROW,COL  LAYER,ROW,COL  LAYER,ROW,COL  LAYER,ROW,COL
 ---------------------------------------------------------------------------
  1  0.3836      0 -0.2514      0  0.2214      0  0.1729      0  0.2337    
   (  5, 21,  2)  (  5, 17,  1)  (  5, 16,  2)  (  5, 17,  1)  (  5, 19,  1)
  0  0.1390      0 -0.1199      0 -0.8829E-01  0  0.8002E-01  0 -0.4626E-01
   (  5, 20,  1)  (  5, 18,  1)  (  5, 19,  1)  (  5, 18,  1)  (  5, 18,  4)
  0  0.3696E-01  0 -0.2601E-01  0  0.1725E-01  0  0.9958E-02  0 -0.1273E-01
   (  5, 17,  3)  (  5, 16,  3)  (  5, 12,  5)  (  5, 17,  1)  (  5, 15,  1)
  0 -0.9949E-02  0  0.4822E-02  0 -0.5837E-02  0 -0.6330E-02  0 -0.2431E-02
   (  5, 18,  2)  (  5, 18,  1)  (  5, 16,  1)  (  5, 19,  3)  (  5, 17,  2)
  0 -0.1889E-02  0  0.1661E-02  0 -0.1224E-02  0  0.1174E-02  0  0.6844E-03
   (  5, 20,  2)  (  5, 20,  1)  (  5, 16,  1)  (  5, 16,  2)  (  5, 18,  5)
  0  0.5106E-03  0 -0.3151E-03  0 -0.2996E-03  0  0.2169E-03  0 -0.1550E-03
   (  5, 20,  3)  (  5, 15,  4)  (  5, 18,  1)  (  5, 19,  2)  (  5,  6,  1)
  1  0.1140E-02  0  0.9041E-03  0 -0.7110E-03  0  0.4109E-03  0 -0.2973E-03
   (  5,  6,  1)  (  5, 17,  2)  (  5, 19,  1)  (  5, 19,  1)  (  5, 18,  2)
  0  0.2616E-03  0 -0.2040E-03  0 -0.1209E-03  0  0.6961E-04  0 -0.6918E-04
   (  5, 19,  1)  (  5, 19,  1)  (  5,  6,  1)  (  5, 18,  2)  (  5, 17,  4)
  0  0.3941E-04  0 -0.4412E-04  0  0.3205E-04  0 -0.3466E-04  0  0.2307E-04
   (  5, 17,  4)  (  5, 16,  3)  (  5, 16,  2)  (  5, 14,  1)  (  5, 19,  3)
  0 -0.1882E-04  0 -0.1076E-04  0 -0.9704E-05  0  0.5800E-05  0 -0.5052E-05
   (  5, 19,  3)  (  5, 14,  5)  (  5, 20,  1)  (  5, 18,  1)  (  5, 18,  2)
  0  0.3376E-05  0  0.3302E-05  0 -0.2083E-05  0  0.1364E-05  0  0.2163E-05
   (  5, 13,  5)  (  5, 17,  1)  (  5, 15,  1)  (  5, 16,  2)  (  5, 20,  1)
  0 -0.1158E-05  0  0.8250E-06  1  0.4924E-05  0  0.3548E-05  0 -0.3441E-05
   (  5, 20,  1)  (  5, 18,  5)  (  2, 19, 14)  (  5, 17,  3)  (  5, 15,  1)
  0  0.1750E-05  0 -0.1187E-05  0 -0.1214E-05  0  0.6614E-06  1 -0.4771E-06
   (  5, 12,  1)  (  5, 14,  3)  (  5, 20,  1)  (  5, 14,  4)  (  5, 19,  2)

 MAXIMUM RESIDUAL FOR EACH ITERATION (1 INDICATES THE FIRST INNER ITERATION):

    RESIDUAL       RESIDUAL       RESIDUAL       RESIDUAL       RESIDUAL    
   LAYER,ROW,COL  LAYER,ROW,COL  LAYER,ROW,COL  LAYER,ROW,COL  LAYER,ROW,COL
 ---------------------------------------------------------------------------
  1 -0.1062E-01  0 -0.9566E-02  0 -0.8595E-02  0 -0.7313E-02  0 -0.5841E-02
   (  3, 17, 17)  (  3, 17, 17)  (  3, 17, 17)  (  3, 17, 17)  (  3, 17, 17)
  0 -0.4387E-02  0 -0.2933E-02  0 -0.1757E-02  0 -0.1031E-02  0 -0.6481E-03
   (  3, 17, 17)  (  3, 17, 17)  (  3, 17, 17)  (  3, 20, 11)  (  3, 20, 11)
  0 -0.4474E-03  0 -0.3594E-03  0 -0.2906E-03  0 -0.2682E-03  0 -0.2193E-03
   (  4, 16, 17)  (  4, 16, 17)  (  4, 16, 17)  (  4, 16, 17)  (  4, 16, 17)
  0 -0.1614E-03  0 -0.1451E-03  0 -0.1105E-03  0 -0.7913E-04  0 -0.5437E-04
   (  4, 16, 17)  (  4, 16, 17)  (  4, 16, 17)  (  4, 16, 17)  (  4, 16, 17)
  0 -0.4318E-04  0 -0.3371E-04  0  0.2556E-04  0  0.2265E-04  0  0.1463E-04
   (  4, 16, 17)  (  4, 16, 17)  (  3, 21,  6)  (  3, 21,  6)  (  3, 21,  6)
  0  0.9048E-05  0  0.4845E-05  0  0.2844E-05  0  0.2143E-05  0 -0.1268E-05
   (  3, 21,  6)  (  3, 21,  6)  (  3, 21,  6)  (  3, 21,  6)  (  5, 15, 17)
  1  0.6434E-05  0  0.5222E-05  0 -0.2281E-05  0 -0.1996E-05  0 -0.1831E-05
   (  5,  6,  1)  (  5,  6,  1)  (  3, 17, 17)  (  3, 17, 17)  (  3, 17, 17)
  0 -0.1383E-05  0 -0.1192E-05  0 -0.8447E-06  0 -0.6805E-06  0 -0.5086E-06
   (  3, 17, 17)  (  3, 17, 17)  (  3, 17, 17)  (  3, 17, 17)  (  3, 17, 17)
  0 -0.3898E-06  0 -0.2740E-06  0 -0.2279E-06  0 -0.1684E-06  0 -0.1336E-06
   (  3, 17, 17)  (  3, 17, 17)  (  3, 17, 17)  (  3, 17, 17)  (  4, 18, 14)
  0 -0.1201E-06  0 -0.8764E-07  0 -0.6360E-07  0 -0.5360E-07  0 -0.3111E-07
   (  4, 18, 14)  (  4, 18, 14)  (  4, 18, 14)  (  4, 18, 14)  (  4, 20,  4)
  0 -0.2322E-07  0 -0.1795E-07  0 -0.1501E-07  0 -0.1345E-07  0 -0.1152E-07
   (  4, 20,  6)  (  4, 20,  6)  (  4, 21,  4)  (  4, 21,  4)  (  4, 21,  4)
  0 -0.7510E-08  0 -0.5045E-08  1  0.1267E-07  0  0.9652E-08  0  0.6548E-08
   (  4, 21,  4)  (  4, 21,  4)  (  5, 10,  3)  (  5, 16,  1)  (  3, 19, 14)
  0  0.5401E-08  0 -0.4096E-08  0  0.3389E-08  0  0.2399E-08  1  0.2398E-08
   (  3, 16, 17)  (  5, 16, 17)  (  4, 21,  2)  (  3, 21,  4)  (  4, 21,  2)



 OUTPUT CONTROL FOR STRESS PERIOD   71   TIME STEP    1
    SAVE HEAD FOR ALL LAYERS
    SAVE DRAWDOWN FOR ALL LAYERS
    SAVE BUDGET
    PRINT BUDGET
 UBDSV1 SAVING "         STORAGE" ON UNIT   9 AT TIME STEP  1, STRESS PERIOD  71
 UBDSV2 SAVING "   CONSTANT HEAD" ON UNIT   9 AT TIME STEP  1, STRESS PERIOD  71
 UBDSV1 SAVING "FLOW RIGHT FACE " ON UNIT   9 AT TIME STEP  1, STRESS PERIOD  71
 UBDSV1 SAVING "FLOW FRONT FACE " ON UNIT   9 AT TIME STEP  1, STRESS PERIOD  71
 UBDSV1 SAVING "FLOW LOWER FACE " ON UNIT   9 AT TIME STEP  1, STRESS PERIOD  71
 UBDSV3 SAVING "        RECHARGE" ON UNIT   9 AT TIME STEP  1, STRESS PERIOD  71

 HEAD WILL BE SAVED ON UNIT   37 AT END OF TIME STEP    1, STRESS PERIOD   71

 DRAWDOWN WILL BE SAVED ON UNIT   38 AT END OF TIME STEP    1, STRESS PERIOD   71
1
  VOLUMETRIC BUDGET FOR ENTIRE MODEL AT END OF TIME STEP    1, STRESS PERIOD  71
  ------------------------------------------------------------------------------

     CUMULATIVE VOLUMES      L**3       RATES FOR THIS TIME STEP      L**3/T
     ------------------                 ------------------------

           IN:                                      IN:
           ---                                      ---
             STORAGE =       10445.4170               STORAGE =           0.0000
       CONSTANT HEAD =       18746.0605         CONSTANT HEAD =       4.8520E-03
            RECHARGE =         785.9491              RECHARGE =       9.7813E-05

            TOTAL IN =       29977.4258              TOTAL IN =       4.9499E-03

          OUT:                                     OUT:
          ----                                     ----
             STORAGE =        6427.2739               STORAGE =       4.9499E-03
       CONSTANT HEAD =       23550.9277         CONSTANT HEAD =           0.0000
            RECHARGE =           0.0000              RECHARGE =           0.0000

           TOTAL OUT =       29978.2012             TOTAL OUT =       4.9499E-03

            IN - OUT =          -0.7754              IN - OUT =      -7.4971E-08

 PERCENT DISCREPANCY =          -0.00     PERCENT DISCREPANCY =          -0.00






         TIME SUMMARY AT END OF TIME STEP    1 IN STRESS PERIOD   71
                    SECONDS     MINUTES      HOURS       DAYS        YEARS
                    -----------------------------------------------------------
   TIME STEP LENGTH  86400.      1440.0      24.000      1.0000     2.73785E-03
 STRESS PERIOD TIME  86400.      1440.0      24.000      1.0000     2.73785E-03
         TOTAL TIME 8.03520E+06 1.33920E+05  2232.0      93.000     0.25462    
1
1
                            STRESS PERIOD NO.   72, LENGTH =   86400.00    
                            -----------------------------------------------

                              NUMBER OF TIME STEPS =     1

                               MULTIPLIER FOR DELT =     1.000

                            INITIAL TIME STEP SIZE =   86400.00    

 REUSING RECH FROM LAST STRESS PERIOD

 CHD NO.   LAYER   ROW   COL    START HEAD        END HEAD         IFACE           
 ----------------------------------------------------------------------------------
      1      4      1      1       109.7           109.8           0.000    
      2      5      1      1       109.7           109.8           0.000    
      3      4      1      2       109.7           109.8           0.000    
      4      5      1      2       109.7           109.8           0.000    
      5      4      1      3       109.7           109.8           0.000    
      6      5      1      3       109.7           109.8           0.000    
      7      4      1      4       109.7           109.8           0.000    
      8      5      1      4       109.7           109.8           0.000    
      9      4      1      5       109.7           109.8           0.000    
     10      5      1      5       109.7           109.8           0.000    
     11      4      1      6       109.7           109.8           0.000    
     12      5      1      6       109.7           109.8           0.000    
     13      4      1      7       109.7           109.8           0.000    
     14      5      1      7       109.7           109.8           0.000    
     15      4      1      8       109.7           109.8           0.000    
     16      5      1      8       109.7           109.8           0.000    
     17      4      1      9       109.7           109.8           0.000    
     18      5      1      9       109.7           109.8           0.000    
     19      4      1     10       109.7           109.8           0.000    
     20      5      1     10       109.7           109.8           0.000    
     21      4      1     11       109.7           109.8           0.000    
     22      5      1     11       109.7           109.8           0.000    
     23      4      1     12       109.7           109.8           0.000    
     24      5      1     12       109.7           109.8           0.000    
     25      4      1     13       109.7           109.8           0.000    
     26      5      1     13       109.7           109.8           0.000    
     27      4      1     14       109.7           109.8           0.000    
     28      5      1     14       109.7           109.8           0.000    
     29      4      1     15       109.7           109.8           0.000    
     30      5      1     15       109.7           109.8           0.000    
     31      4      1     16       109.7           109.8           0.000    
     32      5      1     16       109.7           109.8           0.000    
     33      4      1     17       109.7           109.8           0.000    
     34      5      1     17       109.7           109.8           0.000    
     35      4     17     17       109.7           109.9           0.000    
     36      5     17     17       109.7           109.9           0.000    
     37      4     18     17       109.7           109.9           0.000    
     38      5     18     17       109.7           109.9           0.000    
     39      4     18     16       109.7           109.9           0.000    
     40      5     18     16       109.7           109.9           0.000    
     41      4     19     16       109.7           109.9           0.000    
     42      5     19     16       109.7           109.9           0.000    
     43      4     19     15       109.7           109.9           0.000    
     44      5     19     15       109.7           109.9           0.000    
     45      4     20     15       109.7           109.9           0.000    
     46      5     20     15       109.7           109.9           0.000    
     47      4     20     14       109.7           109.9           0.000    
     48      5     20     14       109.7           109.9           0.000    
     49      4     20     13       109.7           109.9           0.000    
     50      5     20     13       109.7           109.9           0.000    
     51      4     20     12       109.7           109.9           0.000    
     52      5     20     12       109.7           109.9           0.000    
     53      4     20     11       109.7           109.9           0.000    
     54      5     20     11       109.7           109.9           0.000    
     55      4     21     11       109.7           109.9           0.000    
     56      5     21     11       109.7           109.9           0.000    
     57      4     21     10       109.7           109.9           0.000    
     58      5     21     10       109.7           109.9           0.000    
     59      4     21      9       109.7           109.9           0.000    
     60      5     21      9       109.7           109.9           0.000    
     61      4     21      8       109.7           109.9           0.000    
     62      5     21      8       109.7           109.9           0.000    
     63      4     21      7       109.7           109.9           0.000    
     64      5     21      7       109.7           109.9           0.000    
     65      4     21      6       109.7           109.9           0.000    
     66      5     21      6       109.7           109.9           0.000    
     67      4     21      5       109.7           109.9           0.000    
     68      5     21      5       109.7           109.9           0.000    
     69      4     22      5       109.7           109.9           0.000    
     70      5     22      5       109.7           109.9           0.000    
     71      4     22      4       109.7           109.9           0.000    
     72      5     22      4       109.7           109.9           0.000    
     73      4     22      3       109.7           109.9           0.000    
     74      5     22      3       109.7           109.9           0.000    
     75      4     22      2       109.7           109.9           0.000    
     76      5     22      2       109.7           109.9           0.000    
     77      4     22      1       109.7           109.9           0.000    
     78      5     22      1       109.7           109.9           0.000    


     78 TIME-VARIANT SPECIFIED-HEAD CELLS

 SOLVING FOR HEAD 


     4 CALLS TO PCG ROUTINE FOR TIME STEP   1 IN STRESS PERIOD   72
    67 TOTAL ITERATIONS

 MAXIMUM HEAD CHANGE FOR EACH ITERATION (1 INDICATES THE FIRST INNER ITERATION):

    HEAD CHANGE    HEAD CHANGE    HEAD CHANGE    HEAD CHANGE    HEAD CHANGE 
   LAYER,ROW,COL  LAYER,ROW,COL  LAYER,ROW,COL  LAYER,ROW,COL  LAYER,ROW,COL
 ---------------------------------------------------------------------------
  1  0.4813      0 -0.3148      0  0.2782      0  0.2174      0  0.2907    
   (  5, 21,  2)  (  5, 17,  1)  (  5, 16,  2)  (  5, 17,  1)  (  5, 19,  1)
  0  0.1752      0 -0.1501      0 -0.1104      0  0.1013      0 -0.5801E-01
   (  5, 20,  1)  (  5, 18,  1)  (  5, 19,  1)  (  5, 18,  1)  (  5, 18,  4)
  0  0.4572E-01  0 -0.2823E-01  0 -0.1888E-01  0  0.2003E-01  0  0.1297E-01
   (  5, 17,  3)  (  5, 13,  5)  (  5, 16,  2)  (  5, 12,  5)  (  5, 19,  3)
  0 -0.1149E-01  0 -0.7878E-02  0  0.5245E-02  0 -0.8735E-02  0  0.2792E-02
   (  5, 18,  3)  (  5, 16,  1)  (  5, 19,  1)  (  5, 19,  3)  (  5, 18,  2)
  0  0.2493E-02  0 -0.1831E-02  0  0.1946E-02  0  0.1302E-02  0  0.9537E-03
   (  5, 17,  5)  (  5, 19,  1)  (  5, 16,  2)  (  5, 19,  2)  (  5, 18,  5)
  0  0.6450E-03  0  0.3914E-03  0  0.3309E-03  0  0.1860E-03  0  0.1610E-03
   (  5, 20,  3)  (  5, 14,  2)  (  5,  6,  1)  (  5, 17,  1)  (  5, 13,  3)
  1 -0.1326E-02  0  0.1686E-02  0 -0.1419E-02  0  0.7827E-03  0 -0.5881E-03
   (  5, 17,  2)  (  5, 16,  2)  (  5, 19,  1)  (  5, 17,  1)  (  5, 18,  2)
  0  0.4281E-03  0 -0.3315E-03  0  0.1543E-03  0 -0.1132E-03  0 -0.7773E-04
   (  5, 19,  1)  (  5, 20,  1)  (  5, 20,  1)  (  5, 11,  4)  (  5, 17,  5)
  0  0.7228E-04  0 -0.8378E-04  0  0.4023E-04  0 -0.4351E-04  0  0.3854E-04
   (  5, 17,  4)  (  5, 16,  3)  (  5, 17,  1)  (  5, 14,  1)  (  5, 19,  3)
  0 -0.2615E-04  0  0.1789E-04  0 -0.1795E-04  0  0.1114E-04  0 -0.6229E-05
   (  5, 17,  3)  (  5, 18,  1)  (  5, 19,  2)  (  5, 20,  3)  (  5, 20,  2)
  0 -0.5384E-05  0  0.3162E-05  0 -0.3801E-05  0 -0.3854E-05  0  0.2615E-05
   (  5, 15,  4)  (  5, 15,  2)  (  5, 17,  3)  (  5, 19,  1)  (  5, 20,  1)
  0 -0.1502E-05  0  0.1274E-05  0  0.8301E-06  1 -0.7619E-05  0  0.1061E-04
   (  5, 17,  5)  (  5, 18,  5)  (  5, 20,  3)  (  5, 18,  1)  (  2, 19, 14)
  0 -0.3428E-05  0  0.3509E-05  0  0.2379E-05  0 -0.1476E-05  0  0.1871E-05
   (  5, 17,  1)  (  5, 15,  1)  (  5, 12,  4)  (  5, 20,  2)  (  5, 19,  1)
  0 -0.7659E-06  1  0.6068E-06
   (  5, 21,  2)  (  5, 20,  1)

 MAXIMUM RESIDUAL FOR EACH ITERATION (1 INDICATES THE FIRST INNER ITERATION):

    RESIDUAL       RESIDUAL       RESIDUAL       RESIDUAL       RESIDUAL    
   LAYER,ROW,COL  LAYER,ROW,COL  LAYER,ROW,COL  LAYER,ROW,COL  LAYER,ROW,COL
 ---------------------------------------------------------------------------
  1 -0.1328E-01  0 -0.1196E-01  0 -0.1074E-01  0 -0.9142E-02  0 -0.7320E-02
   (  3, 17, 17)  (  3, 17, 17)  (  3, 17, 17)  (  3, 17, 17)  (  3, 17, 17)
  0 -0.5515E-02  0 -0.3703E-02  0 -0.2218E-02  0 -0.1291E-02  0 -0.8105E-03
   (  3, 17, 17)  (  3, 17, 17)  (  3, 17, 17)  (  3, 20, 11)  (  3, 20, 11)
  0 -0.5551E-03  0 -0.4524E-03  0 -0.4306E-03  0 -0.3460E-03  0 -0.2728E-03
   (  4, 16, 17)  (  4, 16, 17)  (  4, 16, 17)  (  4, 16, 17)  (  4, 16, 17)
  0 -0.1992E-03  0 -0.1562E-03  0 -0.1371E-03  0 -0.9943E-04  0 -0.6805E-04
   (  4, 16, 17)  (  4, 16, 17)  (  4, 16, 17)  (  4, 16, 17)  (  4, 16, 17)
  0 -0.4796E-04  0 -0.4189E-04  0 -0.3585E-04  0  0.2832E-04  0  0.1831E-04
   (  4, 16, 17)  (  4, 16, 17)  (  4, 16, 17)  (  3, 21,  6)  (  3, 21,  6)
  0  0.1133E-04  0  0.6070E-05  0  0.3100E-05  0  0.2583E-05  0 -0.1630E-05
   (  3, 21,  6)  (  3, 21,  6)  (  3, 21,  6)  (  3, 21,  6)  (  3, 17, 17)
  1  0.5463E-05  0  0.5842E-05  0 -0.3814E-05  0 -0.3525E-05  0 -0.3009E-05
   (  5,  6,  1)  (  5,  6,  1)  (  3, 17, 17)  (  3, 17, 17)  (  3, 17, 17)
  0 -0.2448E-05  0 -0.1982E-05  0 -0.1477E-05  0 -0.1163E-05  0 -0.8744E-06
   (  3, 17, 17)  (  3, 17, 17)  (  3, 17, 17)  (  3, 17, 17)  (  3, 17, 17)
  0 -0.7010E-06  0 -0.5235E-06  0 -0.4717E-06  0 -0.3127E-06  0 -0.2277E-06
   (  3, 17, 17)  (  3, 17, 17)  (  3, 17, 17)  (  3, 17, 17)  (  4, 18, 14)
  0 -0.1992E-06  0 -0.1799E-06  0 -0.1342E-06  0 -0.8793E-07  0 -0.5011E-07
   (  4, 18, 14)  (  4, 18, 14)  (  4, 18, 14)  (  4, 18, 14)  (  4, 18, 14)
  0 -0.3707E-07  0 -0.3481E-07  0 -0.2685E-07  0 -0.2239E-07  0 -0.1618E-07
   (  4, 20,  6)  (  4, 20,  6)  (  3, 17, 17)  (  3, 17, 17)  (  4, 21,  3)
  0 -0.1106E-07  0 -0.7156E-08  0 -0.5922E-08  1  0.3170E-07  0  0.1810E-07
   (  3, 17, 17)  (  3, 17, 17)  (  4, 21,  3)  (  3, 21,  4)  (  3, 19, 14)
  0  0.1453E-07  0  0.1284E-07  0  0.9635E-08  0  0.7181E-08  0  0.5120E-08
   (  3, 19, 14)  (  3, 19, 14)  (  3, 19, 14)  (  3, 19, 14)  (  3, 19, 14)
  0  0.3943E-08  1  0.3525E-08
   (  3, 21,  4)  (  3, 21,  4)



 OUTPUT CONTROL FOR STRESS PERIOD   72   TIME STEP    1
    SAVE HEAD FOR ALL LAYERS
    SAVE DRAWDOWN FOR ALL LAYERS
    SAVE BUDGET
    PRINT BUDGET
 UBDSV1 SAVING "         STORAGE" ON UNIT   9 AT TIME STEP  1, STRESS PERIOD  72
 UBDSV2 SAVING "   CONSTANT HEAD" ON UNIT   9 AT TIME STEP  1, STRESS PERIOD  72
 UBDSV1 SAVING "FLOW RIGHT FACE " ON UNIT   9 AT TIME STEP  1, STRESS PERIOD  72
 UBDSV1 SAVING "FLOW FRONT FACE " ON UNIT   9 AT TIME STEP  1, STRESS PERIOD  72
 UBDSV1 SAVING "FLOW LOWER FACE " ON UNIT   9 AT TIME STEP  1, STRESS PERIOD  72
 UBDSV3 SAVING "        RECHARGE" ON UNIT   9 AT TIME STEP  1, STRESS PERIOD  72

 HEAD WILL BE SAVED ON UNIT   37 AT END OF TIME STEP    1, STRESS PERIOD   72

 DRAWDOWN WILL BE SAVED ON UNIT   38 AT END OF TIME STEP    1, STRESS PERIOD   72
1
  VOLUMETRIC BUDGET FOR ENTIRE MODEL AT END OF TIME STEP    1, STRESS PERIOD  72
  ------------------------------------------------------------------------------

     CUMULATIVE VOLUMES      L**3       RATES FOR THIS TIME STEP      L**3/T
     ------------------                 ------------------------

           IN:                                      IN:
           ---                                      ---
             STORAGE =       10445.4170               STORAGE =           0.0000
       CONSTANT HEAD =       19292.9922         CONSTANT HEAD =       6.3302E-03
            RECHARGE =         794.4001              RECHARGE =       9.7813E-05

            TOTAL IN =       30532.8105              TOTAL IN =       6.4280E-03

          OUT:                                     OUT:
          ----                                     ----
             STORAGE =        6982.6616               STORAGE =       6.4281E-03
       CONSTANT HEAD =       23550.9277         CONSTANT HEAD =           0.0000
            RECHARGE =           0.0000              RECHARGE =           0.0000

           TOTAL OUT =       30533.5898             TOTAL OUT =       6.4281E-03

            IN - OUT =          -0.7793              IN - OUT =      -6.4261E-08

 PERCENT DISCREPANCY =          -0.00     PERCENT DISCREPANCY =          -0.00






         TIME SUMMARY AT END OF TIME STEP    1 IN STRESS PERIOD   72
                    SECONDS     MINUTES      HOURS       DAYS        YEARS
                    -----------------------------------------------------------
   TIME STEP LENGTH  86400.      1440.0      24.000      1.0000     2.73785E-03
 STRESS PERIOD TIME  86400.      1440.0      24.000      1.0000     2.73785E-03
         TOTAL TIME 8.12160E+06 1.35360E+05  2256.0      94.000     0.25736    
1
1
                            STRESS PERIOD NO.   73, LENGTH =   86400.00    
                            -----------------------------------------------

                              NUMBER OF TIME STEPS =     1

                               MULTIPLIER FOR DELT =     1.000

                            INITIAL TIME STEP SIZE =   86400.00    

 REUSING RECH FROM LAST STRESS PERIOD

 CHD NO.   LAYER   ROW   COL    START HEAD        END HEAD         IFACE           
 ----------------------------------------------------------------------------------
      1      4      1      1       109.8           109.8           0.000    
      2      5      1      1       109.8           109.8           0.000    
      3      4      1      2       109.8           109.8           0.000    
      4      5      1      2       109.8           109.8           0.000    
      5      4      1      3       109.8           109.8           0.000    
      6      5      1      3       109.8           109.8           0.000    
      7      4      1      4       109.8           109.8           0.000    
      8      5      1      4       109.8           109.8           0.000    
      9      4      1      5       109.8           109.8           0.000    
     10      5      1      5       109.8           109.8           0.000    
     11      4      1      6       109.8           109.8           0.000    
     12      5      1      6       109.8           109.8           0.000    
     13      4      1      7       109.8           109.8           0.000    
     14      5      1      7       109.8           109.8           0.000    
     15      4      1      8       109.8           109.8           0.000    
     16      5      1      8       109.8           109.8           0.000    
     17      4      1      9       109.8           109.8           0.000    
     18      5      1      9       109.8           109.8           0.000    
     19      4      1     10       109.8           109.8           0.000    
     20      5      1     10       109.8           109.8           0.000    
     21      4      1     11       109.8           109.8           0.000    
     22      5      1     11       109.8           109.8           0.000    
     23      4      1     12       109.8           109.8           0.000    
     24      5      1     12       109.8           109.8           0.000    
     25      4      1     13       109.8           109.8           0.000    
     26      5      1     13       109.8           109.8           0.000    
     27      4      1     14       109.8           109.8           0.000    
     28      5      1     14       109.8           109.8           0.000    
     29      4      1     15       109.8           109.8           0.000    
     30      5      1     15       109.8           109.8           0.000    
     31      4      1     16       109.8           109.8           0.000    
     32      5      1     16       109.8           109.8           0.000    
     33      4      1     17       109.8           109.8           0.000    
     34      5      1     17       109.8           109.8           0.000    
     35      4     17     17       109.9           109.8           0.000    
     36      5     17     17       109.9           109.8           0.000    
     37      4     18     17       109.9           109.8           0.000    
     38      5     18     17       109.9           109.8           0.000    
     39      4     18     16       109.9           109.8           0.000    
     40      5     18     16       109.9           109.8           0.000    
     41      4     19     16       109.9           109.8           0.000    
     42      5     19     16       109.9           109.8           0.000    
     43      4     19     15       109.9           109.8           0.000    
     44      5     19     15       109.9           109.8           0.000    
     45      4     20     15       109.9           109.8           0.000    
     46      5     20     15       109.9           109.8           0.000    
     47      4     20     14       109.9           109.8           0.000    
     48      5     20     14       109.9           109.8           0.000    
     49      4     20     13       109.9           109.8           0.000    
     50      5     20     13       109.9           109.8           0.000    
     51      4     20     12       109.9           109.8           0.000    
     52      5     20     12       109.9           109.8           0.000    
     53      4     20     11       109.9           109.8           0.000    
     54      5     20     11       109.9           109.8           0.000    
     55      4     21     11       109.9           109.8           0.000    
     56      5     21     11       109.9           109.8           0.000    
     57      4     21     10       109.9           109.8           0.000    
     58      5     21     10       109.9           109.8           0.000    
     59      4     21      9       109.9           109.8           0.000    
     60      5     21      9       109.9           109.8           0.000    
     61      4     21      8       109.9           109.8           0.000    
     62      5     21      8       109.9           109.8           0.000    
     63      4     21      7       109.9           109.8           0.000    
     64      5     21      7       109.9           109.8           0.000    
     65      4     21      6       109.9           109.8           0.000    
     66      5     21      6       109.9           109.8           0.000    
     67      4     21      5       109.9           109.8           0.000    
     68      5     21      5       109.9           109.8           0.000    
     69      4     22      5       109.9           109.8           0.000    
     70      5     22      5       109.9           109.8           0.000    
     71      4     22      4       109.9           109.8           0.000    
     72      5     22      4       109.9           109.8           0.000    
     73      4     22      3       109.9           109.8           0.000    
     74      5     22      3       109.9           109.8           0.000    
     75      4     22      2       109.9           109.8           0.000    
     76      5     22      2       109.9           109.8           0.000    
     77      4     22      1       109.9           109.8           0.000    
     78      5     22      1       109.9           109.8           0.000    


     78 TIME-VARIANT SPECIFIED-HEAD CELLS

 SOLVING FOR HEAD 


     3 CALLS TO PCG ROUTINE FOR TIME STEP   1 IN STRESS PERIOD   73
    54 TOTAL ITERATIONS

 MAXIMUM HEAD CHANGE FOR EACH ITERATION (1 INDICATES THE FIRST INNER ITERATION):

    HEAD CHANGE    HEAD CHANGE    HEAD CHANGE    HEAD CHANGE    HEAD CHANGE 
   LAYER,ROW,COL  LAYER,ROW,COL  LAYER,ROW,COL  LAYER,ROW,COL  LAYER,ROW,COL
 ---------------------------------------------------------------------------
  1 -0.2793      0  0.1904      0 -0.1591      0  0.1241      0 -0.1792    
   (  5, 21,  2)  (  5, 18,  1)  (  5, 16,  2)  (  5, 15,  3)  (  5, 19,  1)
  0 -0.1026      0  0.9243E-01  0  0.6910E-01  0 -0.5794E-01  0  0.3484E-01
   (  5, 20,  1)  (  5, 18,  1)  (  5, 19,  1)  (  5, 18,  1)  (  5, 18,  4)
  0 -0.2783E-01  0  0.2543E-01  0 -0.1598E-01  0 -0.1305E-01  0  0.7894E-02
   (  5, 17,  3)  (  5, 16,  3)  (  5, 15,  1)  (  5, 12,  5)  (  5, 19,  1)
  0 -0.6112E-02  0  0.5544E-02  0  0.3938E-02  0  0.5237E-02  0  0.1685E-02
   (  5, 18,  1)  (  5, 18,  2)  (  5, 16,  3)  (  5, 19,  3)  (  5, 17,  2)
  0  0.1541E-02  0 -0.1267E-02  0  0.1121E-02  0 -0.1246E-02  0  0.5548E-03
   (  5, 17,  2)  (  5, 16,  2)  (  5, 19,  1)  (  5, 19,  2)  (  5, 20,  3)
  0 -0.4741E-03  0  0.3235E-03  0 -0.1732E-03  0  0.1930E-03  0  0.1244E-03
   (  5, 20,  3)  (  5, 19,  2)  (  5, 19,  1)  (  5, 18,  1)  (  5,  6,  1)
  1  0.1124E-03  0 -0.1713E-03  0 -0.1801E-03  0  0.1623E-03  0  0.1051E-03
   (  5, 16,  1)  (  5, 14,  1)  (  5, 18,  3)  (  5, 18,  3)  (  5, 13,  2)
  0  0.1094E-03  0 -0.8077E-04  0 -0.3995E-04  0  0.2306E-04  0 -0.2458E-04
   (  5, 18,  1)  (  5, 19,  1)  (  5, 17,  4)  (  5, 15,  4)  (  5, 16,  5)
  0 -0.1695E-04  0  0.1524E-04  0 -0.8352E-05  0 -0.1039E-04  0  0.5576E-05
   (  5, 14,  1)  (  5, 16,  1)  (  5, 15,  4)  (  5, 19,  2)  (  5, 20,  3)
  0  0.4540E-05  0 -0.3397E-05  0  0.3156E-05  0 -0.2236E-05  0  0.1969E-05
   (  5, 17,  1)  (  5, 18,  2)  (  5, 19,  3)  (  5, 19,  1)  (  5, 20,  1)
  0  0.1042E-05  0 -0.1118E-05  0  0.7709E-06  1  0.4623E-06
   (  5, 17,  2)  (  5, 16,  3)  (  5, 16,  3)  (  5, 13,  2)

 MAXIMUM RESIDUAL FOR EACH ITERATION (1 INDICATES THE FIRST INNER ITERATION):

    RESIDUAL       RESIDUAL       RESIDUAL       RESIDUAL       RESIDUAL    
   LAYER,ROW,COL  LAYER,ROW,COL  LAYER,ROW,COL  LAYER,ROW,COL  LAYER,ROW,COL
 ---------------------------------------------------------------------------
  1  0.8673E-02  0  0.7824E-02  0  0.7058E-02  0  0.5989E-02  0  0.4743E-02
   (  3, 17, 17)  (  3, 17, 17)  (  3, 17, 17)  (  3, 17, 17)  (  3, 17, 17)
  0  0.3522E-02  0  0.2342E-02  0  0.1437E-02  0  0.8815E-03  0  0.5715E-03
   (  3, 17, 17)  (  3, 17, 17)  (  3, 20, 11)  (  3, 20, 11)  (  3, 20, 11)
  0  0.3829E-03  0  0.3233E-03  0  0.2960E-03  0  0.2383E-03  0  0.1859E-03
   (  3, 20, 11)  (  4, 16, 17)  (  4, 16, 17)  (  4, 16, 17)  (  4, 16, 17)
  0  0.1444E-03  0  0.1270E-03  0  0.9372E-04  0  0.6645E-04  0  0.4560E-04
   (  4, 16, 17)  (  4, 16, 17)  (  4, 16, 17)  (  4, 16, 17)  (  4, 16, 17)
  0  0.3326E-04  0  0.2981E-04  0  0.2594E-04  0  0.1859E-04  0  0.1139E-04
   (  4, 16, 17)  (  4, 16, 17)  (  4, 16, 17)  (  4, 16, 17)  (  4, 16, 17)
  0  0.6766E-05  0  0.3723E-05  0  0.3211E-05  0 -0.1714E-05  0  0.1114E-05
   (  4, 16, 17)  (  4, 16, 17)  (  4, 16, 17)  (  3, 21,  5)  (  3, 17, 17)
  1 -0.2046E-05  0 -0.1725E-05  0 -0.1147E-05  0 -0.6830E-06  0  0.5102E-06
   (  3, 21,  5)  (  3, 21,  5)  (  3, 21,  5)  (  3, 21,  5)  (  4, 16, 17)
  0 -0.4808E-06  0  0.4484E-06  0  0.3938E-06  0  0.3081E-06  0  0.1976E-06
   (  4, 18, 14)  (  4, 20,  2)  (  4, 20,  2)  (  4, 20,  2)  (  4, 20,  2)
  0  0.1754E-06  0  0.1481E-06  0  0.1115E-06  0  0.6129E-07  0  0.3625E-07
   (  4, 20,  2)  (  4, 20,  2)  (  4, 20,  2)  (  4, 20,  2)  (  4, 20,  2)
  0  0.2699E-07  0  0.2378E-07  0  0.2033E-07  0 -0.1520E-07  0 -0.1458E-07
   (  4, 16, 17)  (  4, 16, 17)  (  4, 16, 17)  (  4, 20,  2)  (  4, 20,  2)
  0 -0.1504E-07  0 -0.1281E-07  0 -0.9923E-08  1 -0.8859E-08
   (  4, 20,  2)  (  4, 20,  2)  (  4, 20,  2)  (  4, 20,  2)



 OUTPUT CONTROL FOR STRESS PERIOD   73   TIME STEP    1
    SAVE HEAD FOR ALL LAYERS
    SAVE DRAWDOWN FOR ALL LAYERS
    SAVE BUDGET
    PRINT BUDGET
 UBDSV1 SAVING "         STORAGE" ON UNIT   9 AT TIME STEP  1, STRESS PERIOD  73
 UBDSV2 SAVING "   CONSTANT HEAD" ON UNIT   9 AT TIME STEP  1, STRESS PERIOD  73
 UBDSV1 SAVING "FLOW RIGHT FACE " ON UNIT   9 AT TIME STEP  1, STRESS PERIOD  73
 UBDSV1 SAVING "FLOW FRONT FACE " ON UNIT   9 AT TIME STEP  1, STRESS PERIOD  73
 UBDSV1 SAVING "FLOW LOWER FACE " ON UNIT   9 AT TIME STEP  1, STRESS PERIOD  73
 UBDSV3 SAVING "        RECHARGE" ON UNIT   9 AT TIME STEP  1, STRESS PERIOD  73

 HEAD WILL BE SAVED ON UNIT   37 AT END OF TIME STEP    1, STRESS PERIOD   73

 DRAWDOWN WILL BE SAVED ON UNIT   38 AT END OF TIME STEP    1, STRESS PERIOD   73
1
  VOLUMETRIC BUDGET FOR ENTIRE MODEL AT END OF TIME STEP    1, STRESS PERIOD  73
  ------------------------------------------------------------------------------

     CUMULATIVE VOLUMES      L**3       RATES FOR THIS TIME STEP      L**3/T
     ------------------                 ------------------------

           IN:                                      IN:
           ---                                      ---
             STORAGE =       10512.5801               STORAGE =       7.7736E-04
       CONSTANT HEAD =       19342.5723         CONSTANT HEAD =       5.7384E-04
            RECHARGE =         802.8512              RECHARGE =       9.7813E-05

            TOTAL IN =       30658.0039              TOTAL IN =       1.4490E-03

          OUT:                                     OUT:
          ----                                     ----
             STORAGE =        7043.1099               STORAGE =       6.9963E-04
       CONSTANT HEAD =       23615.6816         CONSTANT HEAD =       7.4948E-04
            RECHARGE =           0.0000              RECHARGE =           0.0000

           TOTAL OUT =       30658.7910             TOTAL OUT =       1.4491E-03

            IN - OUT =          -0.7871              IN - OUT =      -9.4296E-08

 PERCENT DISCREPANCY =          -0.00     PERCENT DISCREPANCY =          -0.01






         TIME SUMMARY AT END OF TIME STEP    1 IN STRESS PERIOD   73
                    SECONDS     MINUTES      HOURS       DAYS        YEARS
                    -----------------------------------------------------------
   TIME STEP LENGTH  86400.      1440.0      24.000      1.0000     2.73785E-03
 STRESS PERIOD TIME  86400.      1440.0      24.000      1.0000     2.73785E-03
         TOTAL TIME 8.20800E+06 1.36800E+05  2280.0      95.000     0.26010    
1
1
                            STRESS PERIOD NO.   74, LENGTH =   345600.0    
                            -----------------------------------------------

                              NUMBER OF TIME STEPS =     4

                               MULTIPLIER FOR DELT =     1.000

                            INITIAL TIME STEP SIZE =   86400.00    

 REUSING RECH FROM LAST STRESS PERIOD

 CHD NO.   LAYER   ROW   COL    START HEAD        END HEAD         IFACE           
 ----------------------------------------------------------------------------------
      1      4      1      1       109.8           109.8           0.000    
      2      5      1      1       109.8           109.8           0.000    
      3      4      1      2       109.8           109.8           0.000    
      4      5      1      2       109.8           109.8           0.000    
      5      4      1      3       109.8           109.8           0.000    
      6      5      1      3       109.8           109.8           0.000    
      7      4      1      4       109.8           109.8           0.000    
      8      5      1      4       109.8           109.8           0.000    
      9      4      1      5       109.8           109.8           0.000    
     10      5      1      5       109.8           109.8           0.000    
     11      4      1      6       109.8           109.8           0.000    
     12      5      1      6       109.8           109.8           0.000    
     13      4      1      7       109.8           109.8           0.000    
     14      5      1      7       109.8           109.8           0.000    
     15      4      1      8       109.8           109.8           0.000    
     16      5      1      8       109.8           109.8           0.000    
     17      4      1      9       109.8           109.8           0.000    
     18      5      1      9       109.8           109.8           0.000    
     19      4      1     10       109.8           109.8           0.000    
     20      5      1     10       109.8           109.8           0.000    
     21      4      1     11       109.8           109.8           0.000    
     22      5      1     11       109.8           109.8           0.000    
     23      4      1     12       109.8           109.8           0.000    
     24      5      1     12       109.8           109.8           0.000    
     25      4      1     13       109.8           109.8           0.000    
     26      5      1     13       109.8           109.8           0.000    
     27      4      1     14       109.8           109.8           0.000    
     28      5      1     14       109.8           109.8           0.000    
     29      4      1     15       109.8           109.8           0.000    
     30      5      1     15       109.8           109.8           0.000    
     31      4      1     16       109.8           109.8           0.000    
     32      5      1     16       109.8           109.8           0.000    
     33      4      1     17       109.8           109.8           0.000    
     34      5      1     17       109.8           109.8           0.000    
     35      4     17     17       109.8           109.8           0.000    
     36      5     17     17       109.8           109.8           0.000    
     37      4     18     17       109.8           109.8           0.000    
     38      5     18     17       109.8           109.8           0.000    
     39      4     18     16       109.8           109.8           0.000    
     40      5     18     16       109.8           109.8           0.000    
     41      4     19     16       109.8           109.8           0.000    
     42      5     19     16       109.8           109.8           0.000    
     43      4     19     15       109.8           109.8           0.000    
     44      5     19     15       109.8           109.8           0.000    
     45      4     20     15       109.8           109.8           0.000    
     46      5     20     15       109.8           109.8           0.000    
     47      4     20     14       109.8           109.8           0.000    
     48      5     20     14       109.8           109.8           0.000    
     49      4     20     13       109.8           109.8           0.000    
     50      5     20     13       109.8           109.8           0.000    
     51      4     20     12       109.8           109.8           0.000    
     52      5     20     12       109.8           109.8           0.000    
     53      4     20     11       109.8           109.8           0.000    
     54      5     20     11       109.8           109.8           0.000    
     55      4     21     11       109.8           109.8           0.000    
     56      5     21     11       109.8           109.8           0.000    
     57      4     21     10       109.8           109.8           0.000    
     58      5     21     10       109.8           109.8           0.000    
     59      4     21      9       109.8           109.8           0.000    
     60      5     21      9       109.8           109.8           0.000    
     61      4     21      8       109.8           109.8           0.000    
     62      5     21      8       109.8           109.8           0.000    
     63      4     21      7       109.8           109.8           0.000    
     64      5     21      7       109.8           109.8           0.000    
     65      4     21      6       109.8           109.8           0.000    
     66      5     21      6       109.8           109.8           0.000    
     67      4     21      5       109.8           109.8           0.000    
     68      5     21      5       109.8           109.8           0.000    
     69      4     22      5       109.8           109.8           0.000    
     70      5     22      5       109.8           109.8           0.000    
     71      4     22      4       109.8           109.7           0.000    
     72      5     22      4       109.8           109.7           0.000    
     73      4     22      3       109.8           109.7           0.000    
     74      5     22      3       109.8           109.7           0.000    
     75      4     22      2       109.8           109.7           0.000    
     76      5     22      2       109.8           109.7           0.000    
     77      4     22      1       109.8           109.7           0.000    
     78      5     22      1       109.8           109.7           0.000    


     78 TIME-VARIANT SPECIFIED-HEAD CELLS

 SOLVING FOR HEAD 


     3 CALLS TO PCG ROUTINE FOR TIME STEP   1 IN STRESS PERIOD   74
    42 TOTAL ITERATIONS

 MAXIMUM HEAD CHANGE FOR EACH ITERATION (1 INDICATES THE FIRST INNER ITERATION):

    HEAD CHANGE    HEAD CHANGE    HEAD CHANGE    HEAD CHANGE    HEAD CHANGE 
   LAYER,ROW,COL  LAYER,ROW,COL  LAYER,ROW,COL  LAYER,ROW,COL  LAYER,ROW,COL
 ---------------------------------------------------------------------------
  1 -0.1374E-01  0  0.9889E-02  0 -0.7903E-02  0  0.6903E-02  0 -0.9921E-02
   (  5, 21,  2)  (  5, 18,  1)  (  5, 15,  1)  (  5, 15,  3)  (  5, 19,  1)
  0  0.6532E-02  0 -0.4362E-02  0  0.3869E-02  0 -0.2698E-02  0  0.1843E-02
   (  5, 18,  1)  (  5, 20,  2)  (  5, 17,  3)  (  5, 19,  4)  (  5, 18,  3)
  0 -0.1637E-02  0  0.1511E-02  0 -0.6009E-03  0  0.8109E-03  0  0.6489E-03
   (  5, 15,  5)  (  5, 16,  3)  (  5, 16,  1)  (  5, 14,  1)  (  5, 20,  1)
  0  0.4168E-03  0  0.2611E-03  0 -0.3310E-03  0  0.2306E-03  0  0.1603E-03
   (  5, 13,  3)  (  5, 18,  2)  (  5, 17,  2)  (  5, 17,  1)  (  5, 20,  3)
  0 -0.8460E-04  0  0.9884E-04  0  0.4845E-04  0  0.4134E-04  0 -0.4078E-04
   (  5, 14,  2)  (  5, 15,  1)  (  5, 18,  4)  (  5, 20,  2)  (  5, 19,  1)
  0  0.2314E-04  0 -0.1644E-04  0  0.1048E-04  0  0.1098E-04  0  0.7870E-05
   (  5, 19,  1)  (  5, 16,  4)  (  5, 15,  3)  (  5, 18,  1)  (  5, 16,  1)
  1 -0.6714E-05  0  0.6835E-05  0  0.5321E-05  0 -0.4210E-05  0  0.4277E-05
   (  5, 17,  1)  (  5, 14,  2)  (  5, 19,  1)  (  5,  6,  1)  (  5, 20,  2)
  0 -0.3842E-05  0 -0.2578E-05  0  0.2601E-05  0  0.1323E-05  0 -0.1409E-05
   (  5, 19,  1)  (  5, 16,  4)  (  5, 17,  5)  (  5, 11,  3)  (  5, 16,  2)
  0  0.7842E-06  1 -0.5637E-06
   (  5, 16,  1)  (  5, 18,  2)

 MAXIMUM RESIDUAL FOR EACH ITERATION (1 INDICATES THE FIRST INNER ITERATION):

    RESIDUAL       RESIDUAL       RESIDUAL       RESIDUAL       RESIDUAL    
   LAYER,ROW,COL  LAYER,ROW,COL  LAYER,ROW,COL  LAYER,ROW,COL  LAYER,ROW,COL
 ---------------------------------------------------------------------------
  1  0.2826E-03  0  0.2660E-03  0  0.2460E-03  0  0.2159E-03  0  0.1620E-03
   (  3, 17, 17)  (  3, 17, 17)  (  3, 17, 17)  (  3, 17, 17)  (  3, 20, 11)
  0  0.1228E-03  0  0.8733E-04  0  0.5356E-04  0  0.3661E-04  0  0.2223E-04
   (  3, 20, 11)  (  3, 20, 11)  (  3, 20, 11)  (  3, 20, 11)  (  3, 20, 11)
  0  0.1543E-04  0  0.1259E-04  0  0.1214E-04  0  0.9602E-05  0  0.7128E-05
   (  3, 20, 11)  (  4, 16, 17)  (  4, 16, 17)  (  4, 16, 17)  (  4, 16, 17)
  0  0.5296E-05  0  0.4668E-05  0  0.2911E-05  0 -0.1996E-05  0 -0.1612E-05
   (  4, 16, 17)  (  4, 16, 17)  (  4, 16, 17)  (  3, 21,  6)  (  3, 21,  6)
  0 -0.1334E-05  0 -0.1184E-05  0 -0.9160E-06  0 -0.7648E-06  0 -0.5514E-06
   (  3, 21,  6)  (  3, 21,  6)  (  3, 21,  6)  (  3, 21,  6)  (  3, 21,  6)
  0 -0.3322E-06  0 -0.2054E-06  0 -0.1399E-06  0 -0.1121E-06  0 -0.9790E-07
   (  3, 21,  6)  (  3, 21,  5)  (  3, 21,  5)  (  3, 21,  5)  (  3, 21,  5)
  1 -0.1005E-06  0 -0.9192E-07  0 -0.8245E-07  0 -0.5784E-07  0 -0.3972E-07
   (  3, 21,  5)  (  3, 21,  5)  (  3, 21,  5)  (  3, 21,  5)  (  3, 21,  5)
  0 -0.3098E-07  0 -0.2220E-07  0 -0.1422E-07  0 -0.1097E-07  0 -0.8058E-08
   (  3, 21,  5)  (  3, 21,  5)  (  4, 18, 14)  (  4, 18, 14)  (  4, 18, 14)
  0 -0.7009E-08  1  0.6947E-08
   (  4, 18, 14)  (  4, 20,  2)



 OUTPUT CONTROL FOR STRESS PERIOD   74   TIME STEP    1
    SAVE HEAD FOR ALL LAYERS
    SAVE DRAWDOWN FOR ALL LAYERS
    SAVE BUDGET
    PRINT BUDGET
 UBDSV1 SAVING "         STORAGE" ON UNIT   9 AT TIME STEP  1, STRESS PERIOD  74
 UBDSV2 SAVING "   CONSTANT HEAD" ON UNIT   9 AT TIME STEP  1, STRESS PERIOD  74
 UBDSV1 SAVING "FLOW RIGHT FACE " ON UNIT   9 AT TIME STEP  1, STRESS PERIOD  74
 UBDSV1 SAVING "FLOW FRONT FACE " ON UNIT   9 AT TIME STEP  1, STRESS PERIOD  74
 UBDSV1 SAVING "FLOW LOWER FACE " ON UNIT   9 AT TIME STEP  1, STRESS PERIOD  74
 UBDSV3 SAVING "        RECHARGE" ON UNIT   9 AT TIME STEP  1, STRESS PERIOD  74

 HEAD WILL BE SAVED ON UNIT   37 AT END OF TIME STEP    1, STRESS PERIOD   74

 DRAWDOWN WILL BE SAVED ON UNIT   38 AT END OF TIME STEP    1, STRESS PERIOD   74
1
  VOLUMETRIC BUDGET FOR ENTIRE MODEL AT END OF TIME STEP    1, STRESS PERIOD  74
  ------------------------------------------------------------------------------

     CUMULATIVE VOLUMES      L**3       RATES FOR THIS TIME STEP      L**3/T
     ------------------                 ------------------------

           IN:                                      IN:
           ---                                      ---
             STORAGE =       10522.2725               STORAGE =       1.1219E-04
       CONSTANT HEAD =       19379.6113         CONSTANT HEAD =       4.2870E-04
            RECHARGE =         811.3022              RECHARGE =       9.7813E-05

            TOTAL IN =       30713.1855              TOTAL IN =       6.3870E-04

          OUT:                                     OUT:
          ----                                     ----
             STORAGE =        7057.5981               STORAGE =       1.6769E-04
       CONSTANT HEAD =       23656.3828         CONSTANT HEAD =       4.7108E-04
            RECHARGE =           0.0000              RECHARGE =           0.0000

           TOTAL OUT =       30713.9805             TOTAL OUT =       6.3877E-04

            IN - OUT =          -0.7949              IN - OUT =      -6.9616E-08

 PERCENT DISCREPANCY =          -0.00     PERCENT DISCREPANCY =          -0.01






         TIME SUMMARY AT END OF TIME STEP    1 IN STRESS PERIOD   74
                    SECONDS     MINUTES      HOURS       DAYS        YEARS
                    -----------------------------------------------------------
   TIME STEP LENGTH  86400.      1440.0      24.000      1.0000     2.73785E-03
 STRESS PERIOD TIME  86400.      1440.0      24.000      1.0000     2.73785E-03
         TOTAL TIME 8.29440E+06 1.38240E+05  2304.0      96.000     0.26283    
1

 SOLVING FOR HEAD 
     3 CALLS TO PCG ROUTINE FOR TIME STEP   2 IN STRESS PERIOD   74
    40 TOTAL ITERATIONS

 MAXIMUM HEAD CHANGE FOR EACH ITERATION (1 INDICATES THE FIRST INNER ITERATION):

    HEAD CHANGE    HEAD CHANGE    HEAD CHANGE    HEAD CHANGE    HEAD CHANGE 
   LAYER,ROW,COL  LAYER,ROW,COL  LAYER,ROW,COL  LAYER,ROW,COL  LAYER,ROW,COL
 ---------------------------------------------------------------------------
  1 -0.1132E-01  0  0.7541E-02  0 -0.6184E-02  0  0.4801E-02  0 -0.7171E-02
   (  5, 21,  2)  (  5, 18,  1)  (  5, 16,  2)  (  5, 15,  3)  (  5, 19,  1)
  0 -0.3602E-02  0  0.3354E-02  0  0.2827E-02  0 -0.1866E-02  0  0.1373E-02
   (  5, 17,  4)  (  5, 18,  1)  (  5, 17,  3)  (  5, 18,  1)  (  5, 18,  3)
  0 -0.9575E-03  0 -0.6792E-03  0  0.9870E-03  0 -0.4541E-03  0 -0.3454E-03
   (  5, 14,  5)  (  5, 17,  2)  (  5, 16,  3)  (  5, 12,  5)  (  5, 19,  3)
  0  0.3481E-03  0  0.2026E-03  0  0.2039E-03  0  0.1834E-03  0  0.1088E-03
   (  5, 18,  2)  (  5, 13,  2)  (  5, 16,  1)  (  5, 19,  3)  (  5, 17,  2)
  0 -0.6493E-04  0  0.6549E-04  0 -0.4262E-04  0  0.4110E-04  0 -0.2327E-04
   (  5, 16,  1)  (  5, 20,  3)  (  5, 19,  2)  (  5, 20,  1)  (  5, 18,  5)
  0 -0.1512E-04  0 -0.1292E-04  0 -0.8998E-05  0  0.9671E-05  0 -0.4368E-05
   (  5, 20,  3)  (  5, 14,  2)  (  5, 18,  1)  (  5, 18,  1)  (  5, 16,  1)
  1  0.3699E-05  0  0.5023E-05  0  0.3216E-05  0  0.2839E-05  0  0.2886E-05
   (  5, 16,  1)  (  5,  6,  1)  (  5, 18,  2)  (  5, 14,  2)  (  5, 19,  1)
  0  0.2190E-05  0  0.1458E-05  0  0.1082E-05  0  0.7999E-06  1 -0.5505E-06
   (  5,  6,  1)  (  5, 12,  2)  (  5, 16,  2)  (  5, 19,  2)  (  5, 15,  2)

 MAXIMUM RESIDUAL FOR EACH ITERATION (1 INDICATES THE FIRST INNER ITERATION):

    RESIDUAL       RESIDUAL       RESIDUAL       RESIDUAL       RESIDUAL    
   LAYER,ROW,COL  LAYER,ROW,COL  LAYER,ROW,COL  LAYER,ROW,COL  LAYER,ROW,COL
 ---------------------------------------------------------------------------
  1  0.2844E-03  0  0.2566E-03  0  0.2320E-03  0  0.1985E-03  0  0.1562E-03
   (  3, 17, 17)  (  3, 17, 17)  (  3, 17, 17)  (  3, 17, 17)  (  3, 17, 17)
  0  0.1178E-03  0  0.7748E-04  0  0.4835E-04  0  0.3072E-04  0  0.1957E-04
   (  3, 17, 17)  (  3, 17, 17)  (  3, 20, 11)  (  3, 20, 11)  (  3, 20, 11)
  0  0.1297E-04  0  0.1124E-04  0  0.9661E-05  0  0.7777E-05  0  0.5906E-05
   (  3, 20, 11)  (  4, 16, 17)  (  4, 16, 17)  (  4, 16, 17)  (  4, 16, 17)
  0  0.4627E-05  0  0.3931E-05  0  0.2728E-05  0  0.1963E-05  0  0.1362E-05
   (  4, 16, 17)  (  4, 16, 17)  (  4, 16, 17)  (  4, 16, 17)  (  4, 16, 17)
  0  0.1235E-05  0 -0.9767E-06  0 -0.8546E-06  0 -0.6352E-06  0 -0.4053E-06
   (  4, 16, 17)  (  3, 21,  6)  (  3, 21,  6)  (  3, 21,  6)  (  3, 21,  6)
  0 -0.2510E-06  0 -0.1584E-06  0 -0.1312E-06  0 -0.7938E-07  0 -0.7295E-07
   (  3, 21,  6)  (  3, 21,  6)  (  3, 21,  6)  (  3, 21,  5)  (  3, 21,  5)
  1 -0.7447E-07  0 -0.6808E-07  0 -0.5954E-07  0 -0.5078E-07  0 -0.4192E-07
   (  3, 21,  5)  (  3, 21,  5)  (  3, 21,  5)  (  3, 21,  5)  (  3, 21,  5)
  0 -0.3027E-07  0 -0.2343E-07  0 -0.1673E-07  0 -0.9312E-08  1 -0.8728E-08
   (  3, 21,  5)  (  3, 21,  5)  (  3, 21,  5)  (  3, 21,  5)  (  3, 21,  5)



 OUTPUT CONTROL FOR STRESS PERIOD   74   TIME STEP    2
    SAVE HEAD FOR ALL LAYERS
    SAVE DRAWDOWN FOR ALL LAYERS
    SAVE BUDGET
    PRINT BUDGET
 UBDSV1 SAVING "         STORAGE" ON UNIT   9 AT TIME STEP  2, STRESS PERIOD  74
 UBDSV2 SAVING "   CONSTANT HEAD" ON UNIT   9 AT TIME STEP  2, STRESS PERIOD  74
 UBDSV1 SAVING "FLOW RIGHT FACE " ON UNIT   9 AT TIME STEP  2, STRESS PERIOD  74
 UBDSV1 SAVING "FLOW FRONT FACE " ON UNIT   9 AT TIME STEP  2, STRESS PERIOD  74
 UBDSV1 SAVING "FLOW LOWER FACE " ON UNIT   9 AT TIME STEP  2, STRESS PERIOD  74
 UBDSV3 SAVING "        RECHARGE" ON UNIT   9 AT TIME STEP  2, STRESS PERIOD  74

 HEAD WILL BE SAVED ON UNIT   37 AT END OF TIME STEP    2, STRESS PERIOD   74

 DRAWDOWN WILL BE SAVED ON UNIT   38 AT END OF TIME STEP    2, STRESS PERIOD   74
1
  VOLUMETRIC BUDGET FOR ENTIRE MODEL AT END OF TIME STEP    2, STRESS PERIOD  74
  ------------------------------------------------------------------------------

     CUMULATIVE VOLUMES      L**3       RATES FOR THIS TIME STEP      L**3/T
     ------------------                 ------------------------

           IN:                                      IN:
           ---                                      ---
             STORAGE =       10526.8477               STORAGE =       5.2956E-05
       CONSTANT HEAD =       19417.4355         CONSTANT HEAD =       4.3779E-04
            RECHARGE =         819.7533              RECHARGE =       9.7813E-05

            TOTAL IN =       30764.0371              TOTAL IN =       5.8855E-04

          OUT:                                     OUT:
          ----                                     ----
             STORAGE =        7063.0908               STORAGE =       6.3573E-05
       CONSTANT HEAD =       23701.7461         CONSTANT HEAD =       5.2503E-04
            RECHARGE =           0.0000              RECHARGE =           0.0000

           TOTAL OUT =       30764.8359             TOTAL OUT =       5.8861E-04

            IN - OUT =          -0.7988              IN - OUT =      -5.2853E-08

 PERCENT DISCREPANCY =          -0.00     PERCENT DISCREPANCY =          -0.01






         TIME SUMMARY AT END OF TIME STEP    2 IN STRESS PERIOD   74
                    SECONDS     MINUTES      HOURS       DAYS        YEARS
                    -----------------------------------------------------------
   TIME STEP LENGTH  86400.      1440.0      24.000      1.0000     2.73785E-03
 STRESS PERIOD TIME 1.72800E+05  2880.0      48.000      2.0000     5.47570E-03
         TOTAL TIME 8.38080E+06 1.39680E+05  2328.0      97.000     0.26557    
1

 SOLVING FOR HEAD 
     3 CALLS TO PCG ROUTINE FOR TIME STEP   3 IN STRESS PERIOD   74
    39 TOTAL ITERATIONS

 MAXIMUM HEAD CHANGE FOR EACH ITERATION (1 INDICATES THE FIRST INNER ITERATION):

    HEAD CHANGE    HEAD CHANGE    HEAD CHANGE    HEAD CHANGE    HEAD CHANGE 
   LAYER,ROW,COL  LAYER,ROW,COL  LAYER,ROW,COL  LAYER,ROW,COL  LAYER,ROW,COL
 ---------------------------------------------------------------------------
  1 -0.1096E-01  0  0.7256E-02  0 -0.6157E-02  0  0.4691E-02  0 -0.6598E-02
   (  5, 21,  2)  (  5, 18,  1)  (  5, 16,  2)  (  5, 21,  2)  (  5, 19,  1)
  0 -0.3513E-02  0  0.3341E-02  0  0.2569E-02  0 -0.2021E-02  0  0.1317E-02
   (  5, 20,  1)  (  5, 18,  1)  (  5, 17,  3)  (  5, 18,  1)  (  5, 18,  4)
  0 -0.9722E-03  0  0.9927E-03  0 -0.4301E-03  0 -0.4325E-03  0 -0.3238E-03
   (  5, 17,  3)  (  5, 16,  3)  (  5, 15,  1)  (  5, 12,  5)  (  5, 19,  3)
  0  0.3190E-03  0  0.1560E-03  0  0.1928E-03  0  0.1897E-03  0  0.7820E-04
   (  5, 18,  2)  (  5, 15,  3)  (  5, 16,  1)  (  5, 19,  3)  (  5, 17,  2)
  0 -0.5690E-04  0 -0.4938E-04  0  0.3519E-04  0 -0.4969E-04  0 -0.2257E-04
   (  5, 20,  1)  (  5, 16,  2)  (  5, 18,  1)  (  5, 19,  2)  (  5, 18,  5)
  0 -0.1581E-04  0  0.1112E-04  0  0.9007E-05  0 -0.8896E-05  0  0.5755E-05
   (  5, 20,  3)  (  5, 15,  4)  (  5, 18,  1)  (  5, 19,  2)  (  5,  6,  1)
  1 -0.3292E-05  0  0.3052E-05  0 -0.2480E-05  0  0.2873E-05  0  0.1587E-05
   (  5, 14,  1)  (  5, 16,  1)  (  5, 18,  3)  (  5,  6,  1)  (  5, 18,  2)
  0  0.1255E-05  0 -0.1385E-05  0  0.8979E-06  1  0.6851E-06
   (  5, 13,  2)  (  5, 17,  4)  (  5, 15,  4)  (  5, 19,  1)

 MAXIMUM RESIDUAL FOR EACH ITERATION (1 INDICATES THE FIRST INNER ITERATION):

    RESIDUAL       RESIDUAL       RESIDUAL       RESIDUAL       RESIDUAL    
   LAYER,ROW,COL  LAYER,ROW,COL  LAYER,ROW,COL  LAYER,ROW,COL  LAYER,ROW,COL
 ---------------------------------------------------------------------------
  1  0.2851E-03  0  0.2558E-03  0  0.2297E-03  0  0.1954E-03  0  0.1557E-03
   (  3, 17, 17)  (  3, 17, 17)  (  3, 17, 17)  (  3, 17, 17)  (  3, 17, 17)
  0  0.1179E-03  0  0.7937E-04  0  0.4921E-04  0  0.3053E-04  0  0.1970E-04
   (  3, 17, 17)  (  3, 17, 17)  (  3, 20, 11)  (  3, 20, 11)  (  3, 20, 11)
  0  0.1299E-04  0  0.9770E-05  0  0.9301E-05  0  0.7495E-05  0  0.5787E-05
   (  3, 20, 11)  (  4, 16, 17)  (  4, 16, 17)  (  4, 16, 17)  (  4, 16, 17)
  0  0.4173E-05  0  0.3692E-05  0  0.2816E-05  0  0.2034E-05  0  0.1408E-05
   (  4, 16, 17)  (  4, 16, 17)  (  4, 16, 17)  (  4, 16, 17)  (  4, 16, 17)
  0  0.1023E-05  0  0.8959E-06  0  0.7892E-06  0 -0.6082E-06  0 -0.3893E-06
   (  4, 16, 17)  (  4, 16, 17)  (  4, 16, 17)  (  3, 21,  6)  (  3, 21,  6)
  0 -0.2412E-06  0 -0.1350E-06  0 -0.1074E-06  0 -0.7194E-07  0 -0.4668E-07
   (  3, 21,  6)  (  3, 21,  6)  (  3, 21,  6)  (  3, 21,  5)  (  3, 21,  5)
  1 -0.4774E-07  0 -0.4570E-07  0 -0.4039E-07  0 -0.3167E-07  0 -0.2891E-07
   (  3, 21,  5)  (  3, 21,  5)  (  3, 21,  5)  (  3, 21,  5)  (  3, 21,  5)
  0 -0.1916E-07  0 -0.1390E-07  0 -0.1001E-07  1 -0.9689E-08
   (  3, 21,  5)  (  3, 21,  5)  (  3, 21,  5)  (  3, 21,  5)



 OUTPUT CONTROL FOR STRESS PERIOD   74   TIME STEP    3
    SAVE HEAD FOR ALL LAYERS
    SAVE DRAWDOWN FOR ALL LAYERS
    SAVE BUDGET
    PRINT BUDGET
 UBDSV1 SAVING "         STORAGE" ON UNIT   9 AT TIME STEP  3, STRESS PERIOD  74
 UBDSV2 SAVING "   CONSTANT HEAD" ON UNIT   9 AT TIME STEP  3, STRESS PERIOD  74
 UBDSV1 SAVING "FLOW RIGHT FACE " ON UNIT   9 AT TIME STEP  3, STRESS PERIOD  74
 UBDSV1 SAVING "FLOW FRONT FACE " ON UNIT   9 AT TIME STEP  3, STRESS PERIOD  74
 UBDSV1 SAVING "FLOW LOWER FACE " ON UNIT   9 AT TIME STEP  3, STRESS PERIOD  74
 UBDSV3 SAVING "        RECHARGE" ON UNIT   9 AT TIME STEP  3, STRESS PERIOD  74

 HEAD WILL BE SAVED ON UNIT   37 AT END OF TIME STEP    3, STRESS PERIOD   74

 DRAWDOWN WILL BE SAVED ON UNIT   38 AT END OF TIME STEP    3, STRESS PERIOD   74
1
  VOLUMETRIC BUDGET FOR ENTIRE MODEL AT END OF TIME STEP    3, STRESS PERIOD  74
  ------------------------------------------------------------------------------

     CUMULATIVE VOLUMES      L**3       RATES FOR THIS TIME STEP      L**3/T
     ------------------                 ------------------------

           IN:                                      IN:
           ---                                      ---
             STORAGE =       10531.3037               STORAGE =       5.1579E-05
       CONSTANT HEAD =       19461.0430         CONSTANT HEAD =       5.0471E-04
            RECHARGE =         828.2043              RECHARGE =       9.7813E-05

            TOTAL IN =       30820.5527              TOTAL IN =       6.5410E-04

          OUT:                                     OUT:
          ----                                     ----
             STORAGE =        7066.6191               STORAGE =       4.0839E-05
       CONSTANT HEAD =       23754.7363         CONSTANT HEAD =       6.1332E-04
            RECHARGE =           0.0000              RECHARGE =           0.0000

           TOTAL OUT =       30821.3555             TOTAL OUT =       6.5416E-04

            IN - OUT =          -0.8027              IN - OUT =      -5.6461E-08

 PERCENT DISCREPANCY =          -0.00     PERCENT DISCREPANCY =          -0.01






         TIME SUMMARY AT END OF TIME STEP    3 IN STRESS PERIOD   74
                    SECONDS     MINUTES      HOURS       DAYS        YEARS
                    -----------------------------------------------------------
   TIME STEP LENGTH  86400.      1440.0      24.000      1.0000     2.73785E-03
 STRESS PERIOD TIME 2.59200E+05  4320.0      72.000      3.0000     8.21355E-03
         TOTAL TIME 8.46720E+06 1.41120E+05  2352.0      98.000     0.26831    
1

 SOLVING FOR HEAD 
     3 CALLS TO PCG ROUTINE FOR TIME STEP   4 IN STRESS PERIOD   74
    38 TOTAL ITERATIONS

 MAXIMUM HEAD CHANGE FOR EACH ITERATION (1 INDICATES THE FIRST INNER ITERATION):

    HEAD CHANGE    HEAD CHANGE    HEAD CHANGE    HEAD CHANGE    HEAD CHANGE 
   LAYER,ROW,COL  LAYER,ROW,COL  LAYER,ROW,COL  LAYER,ROW,COL  LAYER,ROW,COL
 ---------------------------------------------------------------------------
  1 -0.1093E-01  0  0.7219E-02  0 -0.6163E-02  0 -0.4684E-02  0 -0.6479E-02
   (  5, 21,  2)  (  5, 17,  1)  (  5, 16,  2)  (  5, 17,  1)  (  5, 19,  1)
  0 -0.3589E-02  0  0.3328E-02  0  0.2528E-02  0 -0.2059E-02  0  0.1312E-02
   (  5, 20,  1)  (  5, 18,  1)  (  5, 17,  3)  (  5, 18,  1)  (  5, 18,  4)
  0 -0.9869E-03  0  0.9755E-03  0 -0.4254E-03  0 -0.4310E-03  0 -0.3138E-03
   (  5, 17,  3)  (  5, 16,  3)  (  5, 15,  1)  (  5, 12,  5)  (  5, 19,  3)
  0  0.2732E-03  0  0.1863E-03  0  0.1537E-03  0  0.2054E-03  0  0.7601E-04
   (  5, 18,  3)  (  5, 17,  1)  (  5, 15,  3)  (  5, 19,  3)  (  5, 17,  2)
  0 -0.6538E-04  0  0.4872E-04  0 -0.4808E-04  0 -0.4154E-04  0 -0.2242E-04
   (  5, 20,  1)  (  5, 15,  1)  (  5, 16,  2)  (  5, 19,  2)  (  5, 18,  5)
  0 -0.1607E-04  0 -0.1003E-04  0 -0.7219E-05  0  0.9640E-05  0  0.5213E-05
   (  5, 20,  3)  (  5, 14,  2)  (  5, 19,  2)  (  5, 18,  1)  (  5,  6,  1)
  1 -0.2961E-05  0  0.2637E-05  0 -0.2425E-05  0  0.3350E-05  0  0.1271E-05
   (  5, 17,  2)  (  5, 19,  1)  (  5, 20,  1)  (  5,  6,  1)  (  5, 13,  2)
  0  0.1653E-05  0 -0.9963E-06  1  0.8823E-06
   (  5, 18,  1)  (  5, 19,  1)  (  5, 19,  1)

 MAXIMUM RESIDUAL FOR EACH ITERATION (1 INDICATES THE FIRST INNER ITERATION):

    RESIDUAL       RESIDUAL       RESIDUAL       RESIDUAL       RESIDUAL    
   LAYER,ROW,COL  LAYER,ROW,COL  LAYER,ROW,COL  LAYER,ROW,COL  LAYER,ROW,COL
 ---------------------------------------------------------------------------
  1  0.2847E-03  0  0.2554E-03  0  0.2292E-03  0  0.1951E-03  0  0.1561E-03
   (  3, 17, 17)  (  3, 17, 17)  (  3, 17, 17)  (  3, 17, 17)  (  3, 17, 17)
  0  0.1186E-03  0  0.8040E-04  0  0.4979E-04  0  0.3075E-04  0  0.1993E-04
   (  3, 17, 17)  (  3, 17, 17)  (  3, 20, 11)  (  3, 20, 11)  (  3, 20, 11)
  0  0.1317E-04  0  0.9683E-05  0  0.9218E-05  0  0.7420E-05  0  0.5759E-05
   (  3, 20, 11)  (  4, 16, 17)  (  4, 16, 17)  (  4, 16, 17)  (  4, 16, 17)
  0  0.4160E-05  0  0.3612E-05  0  0.2838E-05  0  0.2055E-05  0  0.1428E-05
   (  4, 16, 17)  (  4, 16, 17)  (  4, 16, 17)  (  4, 16, 17)  (  4, 16, 17)
  0  0.1126E-05  0  0.9805E-06  0  0.8483E-06  0 -0.6057E-06  0 -0.3885E-06
   (  4, 16, 17)  (  4, 16, 17)  (  4, 16, 17)  (  3, 21,  6)  (  3, 21,  6)
  0 -0.2410E-06  0 -0.1354E-06  0 -0.1124E-06  0 -0.7132E-07  0 -0.4799E-07
   (  3, 21,  6)  (  3, 21,  6)  (  3, 21,  6)  (  3, 21,  5)  (  3, 21,  5)
  1 -0.5012E-07  0 -0.4778E-07  0 -0.4114E-07  0 -0.3126E-07  0 -0.2833E-07
   (  3, 21,  5)  (  3, 21,  5)  (  3, 21,  5)  (  3, 21,  5)  (  3, 21,  5)
  0 -0.1890E-07  0 -0.1252E-07  1 -0.1223E-07
   (  3, 21,  5)  (  3, 21,  5)  (  3, 21,  5)



 OUTPUT CONTROL FOR STRESS PERIOD   74   TIME STEP    4
    SAVE HEAD FOR ALL LAYERS
    SAVE DRAWDOWN FOR ALL LAYERS
    SAVE BUDGET
    PRINT BUDGET
 UBDSV1 SAVING "         STORAGE" ON UNIT   9 AT TIME STEP  4, STRESS PERIOD  74
 UBDSV2 SAVING "   CONSTANT HEAD" ON UNIT   9 AT TIME STEP  4, STRESS PERIOD  74
 UBDSV1 SAVING "FLOW RIGHT FACE " ON UNIT   9 AT TIME STEP  4, STRESS PERIOD  74
 UBDSV1 SAVING "FLOW FRONT FACE " ON UNIT   9 AT TIME STEP  4, STRESS PERIOD  74
 UBDSV1 SAVING "FLOW LOWER FACE " ON UNIT   9 AT TIME STEP  4, STRESS PERIOD  74
 UBDSV3 SAVING "        RECHARGE" ON UNIT   9 AT TIME STEP  4, STRESS PERIOD  74

 HEAD WILL BE SAVED ON UNIT   37 AT END OF TIME STEP    4, STRESS PERIOD   74

 DRAWDOWN WILL BE SAVED ON UNIT   38 AT END OF TIME STEP    4, STRESS PERIOD   74
1
  VOLUMETRIC BUDGET FOR ENTIRE MODEL AT END OF TIME STEP    4, STRESS PERIOD  74
  ------------------------------------------------------------------------------

     CUMULATIVE VOLUMES      L**3       RATES FOR THIS TIME STEP      L**3/T
     ------------------                 ------------------------

           IN:                                      IN:
           ---                                      ---
             STORAGE =       10535.9824               STORAGE =       5.4154E-05
       CONSTANT HEAD =       19511.8281         CONSTANT HEAD =       5.8780E-04
            RECHARGE =         836.6554              RECHARGE =       9.7813E-05

            TOTAL IN =       30884.4668              TOTAL IN =       7.3977E-04

          OUT:                                     OUT:
          ----                                     ----
             STORAGE =        7069.6978               STORAGE =       3.5630E-05
       CONSTANT HEAD =       23815.5762         CONSTANT HEAD =       7.0417E-04
            RECHARGE =           0.0000              RECHARGE =           0.0000

           TOTAL OUT =       30885.2734             TOTAL OUT =       7.3980E-04

            IN - OUT =          -0.8066              IN - OUT =      -3.4925E-08

 PERCENT DISCREPANCY =          -0.00     PERCENT DISCREPANCY =          -0.00






         TIME SUMMARY AT END OF TIME STEP    4 IN STRESS PERIOD   74
                    SECONDS     MINUTES      HOURS       DAYS        YEARS
                    -----------------------------------------------------------
   TIME STEP LENGTH  86400.      1440.0      24.000      1.0000     2.73785E-03
 STRESS PERIOD TIME 3.45600E+05  5760.0      96.000      4.0000     1.09514E-02
         TOTAL TIME 8.55360E+06 1.42560E+05  2376.0      99.000     0.27105    
1
1
                            STRESS PERIOD NO.   75, LENGTH =   86400.00    
                            -----------------------------------------------

                              NUMBER OF TIME STEPS =     1

                               MULTIPLIER FOR DELT =     1.000

                            INITIAL TIME STEP SIZE =   86400.00    

 REUSING RECH FROM LAST STRESS PERIOD

 CHD NO.   LAYER   ROW   COL    START HEAD        END HEAD         IFACE           
 ----------------------------------------------------------------------------------
      1      4      1      1       109.8           109.8           0.000    
      2      5      1      1       109.8           109.8           0.000    
      3      4      1      2       109.8           109.8           0.000    
      4      5      1      2       109.8           109.8           0.000    
      5      4      1      3       109.8           109.8           0.000    
      6      5      1      3       109.8           109.8           0.000    
      7      4      1      4       109.8           109.8           0.000    
      8      5      1      4       109.8           109.8           0.000    
      9      4      1      5       109.8           109.8           0.000    
     10      5      1      5       109.8           109.8           0.000    
     11      4      1      6       109.8           109.8           0.000    
     12      5      1      6       109.8           109.8           0.000    
     13      4      1      7       109.8           109.8           0.000    
     14      5      1      7       109.8           109.8           0.000    
     15      4      1      8       109.8           109.8           0.000    
     16      5      1      8       109.8           109.8           0.000    
     17      4      1      9       109.8           109.8           0.000    
     18      5      1      9       109.8           109.8           0.000    
     19      4      1     10       109.8           109.8           0.000    
     20      5      1     10       109.8           109.8           0.000    
     21      4      1     11       109.8           109.8           0.000    
     22      5      1     11       109.8           109.8           0.000    
     23      4      1     12       109.8           109.8           0.000    
     24      5      1     12       109.8           109.8           0.000    
     25      4      1     13       109.8           109.8           0.000    
     26      5      1     13       109.8           109.8           0.000    
     27      4      1     14       109.8           109.8           0.000    
     28      5      1     14       109.8           109.8           0.000    
     29      4      1     15       109.8           109.8           0.000    
     30      5      1     15       109.8           109.8           0.000    
     31      4      1     16       109.8           109.8           0.000    
     32      5      1     16       109.8           109.8           0.000    
     33      4      1     17       109.8           109.8           0.000    
     34      5      1     17       109.8           109.8           0.000    
     35      4     17     17       109.8           109.8           0.000    
     36      5     17     17       109.8           109.8           0.000    
     37      4     18     17       109.8           109.8           0.000    
     38      5     18     17       109.8           109.8           0.000    
     39      4     18     16       109.8           109.7           0.000    
     40      5     18     16       109.8           109.7           0.000    
     41      4     19     16       109.8           109.7           0.000    
     42      5     19     16       109.8           109.7           0.000    
     43      4     19     15       109.8           109.7           0.000    
     44      5     19     15       109.8           109.7           0.000    
     45      4     20     15       109.8           109.7           0.000    
     46      5     20     15       109.8           109.7           0.000    
     47      4     20     14       109.8           109.7           0.000    
     48      5     20     14       109.8           109.7           0.000    
     49      4     20     13       109.8           109.7           0.000    
     50      5     20     13       109.8           109.7           0.000    
     51      4     20     12       109.8           109.7           0.000    
     52      5     20     12       109.8           109.7           0.000    
     53      4     20     11       109.8           109.7           0.000    
     54      5     20     11       109.8           109.7           0.000    
     55      4     21     11       109.8           109.7           0.000    
     56      5     21     11       109.8           109.7           0.000    
     57      4     21     10       109.8           109.7           0.000    
     58      5     21     10       109.8           109.7           0.000    
     59      4     21      9       109.8           109.7           0.000    
     60      5     21      9       109.8           109.7           0.000    
     61      4     21      8       109.8           109.7           0.000    
     62      5     21      8       109.8           109.7           0.000    
     63      4     21      7       109.8           109.7           0.000    
     64      5     21      7       109.8           109.7           0.000    
     65      4     21      6       109.8           109.7           0.000    
     66      5     21      6       109.8           109.7           0.000    
     67      4     21      5       109.8           109.7           0.000    
     68      5     21      5       109.8           109.7           0.000    
     69      4     22      5       109.8           109.7           0.000    
     70      5     22      5       109.8           109.7           0.000    
     71      4     22      4       109.7           109.7           0.000    
     72      5     22      4       109.7           109.7           0.000    
     73      4     22      3       109.7           109.7           0.000    
     74      5     22      3       109.7           109.7           0.000    
     75      4     22      2       109.7           109.7           0.000    
     76      5     22      2       109.7           109.7           0.000    
     77      4     22      1       109.7           109.7           0.000    
     78      5     22      1       109.7           109.7           0.000    


     78 TIME-VARIANT SPECIFIED-HEAD CELLS

 SOLVING FOR HEAD 


     3 CALLS TO PCG ROUTINE FOR TIME STEP   1 IN STRESS PERIOD   75
    47 TOTAL ITERATIONS

 MAXIMUM HEAD CHANGE FOR EACH ITERATION (1 INDICATES THE FIRST INNER ITERATION):

    HEAD CHANGE    HEAD CHANGE    HEAD CHANGE    HEAD CHANGE    HEAD CHANGE 
   LAYER,ROW,COL  LAYER,ROW,COL  LAYER,ROW,COL  LAYER,ROW,COL  LAYER,ROW,COL
 ---------------------------------------------------------------------------
  1 -0.5941E-01  0  0.3920E-01  0 -0.3410E-01  0 -0.2656E-01  0 -0.3634E-01
   (  5, 21,  2)  (  5, 17,  1)  (  5, 16,  2)  (  5, 17,  1)  (  5, 19,  1)
  0 -0.2143E-01  0  0.1880E-01  0  0.1405E-01  0 -0.1247E-01  0  0.7375E-02
   (  5, 20,  1)  (  5, 18,  1)  (  5, 19,  1)  (  5, 18,  1)  (  5, 18,  4)
  0 -0.5695E-02  0  0.3916E-02  0  0.2268E-02  0 -0.2519E-02  0 -0.1826E-02
   (  5, 17,  3)  (  5, 13,  5)  (  5, 16,  2)  (  5, 15,  3)  (  5, 19,  3)
  0  0.1602E-02  0 -0.1146E-02  0  0.9853E-03  0  0.1072E-02  0  0.3980E-03
   (  5, 18,  2)  (  5, 18,  1)  (  5, 16,  1)  (  5, 19,  3)  (  5, 17,  2)
  0  0.3259E-03  0 -0.3176E-03  0  0.2402E-03  0 -0.1859E-03  0 -0.1152E-03
   (  5, 19,  1)  (  5, 17,  1)  (  5, 15,  1)  (  5, 19,  3)  (  5, 18,  5)
  0 -0.9466E-04  0  0.6221E-04  0  0.6580E-04  0 -0.3611E-04  0  0.2581E-04
   (  5, 20,  3)  (  5, 19,  2)  (  5, 15,  4)  (  5,  6,  1)  (  5,  6,  1)
  1 -0.1718E-04  0  0.2352E-04  0 -0.2158E-04  0  0.2502E-04  0  0.1257E-04
   (  5, 14,  1)  (  5, 17,  2)  (  5, 18,  3)  (  5,  6,  1)  (  5, 13,  2)
  0  0.1793E-04  0 -0.1148E-04  0  0.6841E-05  0  0.4517E-05  0 -0.4744E-05
   (  5, 18,  1)  (  5, 19,  1)  (  5,  8,  1)  (  5, 18,  4)  (  5, 16,  4)
  0  0.2928E-05  0 -0.3266E-05  0 -0.1969E-05  0 -0.1774E-05  0 -0.1096E-05
   (  5, 16,  3)  (  5, 14,  1)  (  5, 20,  1)  (  5, 19,  2)  (  5, 16,  1)
  0 -0.8220E-06  1  0.5579E-06
   (  5, 18,  3)  (  5, 18,  4)

 MAXIMUM RESIDUAL FOR EACH ITERATION (1 INDICATES THE FIRST INNER ITERATION):

    RESIDUAL       RESIDUAL       RESIDUAL       RESIDUAL       RESIDUAL    
   LAYER,ROW,COL  LAYER,ROW,COL  LAYER,ROW,COL  LAYER,ROW,COL  LAYER,ROW,COL
 ---------------------------------------------------------------------------
  1  0.1758E-02  0  0.1589E-02  0  0.1434E-02  0  0.1226E-02  0  0.9870E-03
   (  3, 17, 17)  (  3, 17, 17)  (  3, 17, 17)  (  3, 17, 17)  (  3, 17, 17)
  0  0.7506E-03  0  0.5122E-03  0  0.3152E-03  0  0.1909E-03  0  0.1234E-03
   (  3, 17, 17)  (  3, 17, 17)  (  3, 17, 17)  (  3, 20, 11)  (  3, 20, 11)
  0  0.8159E-04  0  0.6039E-04  0  0.5746E-04  0  0.4692E-04  0  0.3714E-04
   (  3, 20, 11)  (  4, 16, 17)  (  4, 16, 17)  (  4, 16, 17)  (  4, 16, 17)
  0  0.3197E-04  0  0.2575E-04  0  0.1909E-04  0  0.1381E-04  0  0.9636E-05
   (  4, 16, 17)  (  4, 16, 17)  (  4, 16, 17)  (  4, 16, 17)  (  4, 16, 17)
  0  0.7855E-05  0  0.6466E-05  0  0.5781E-05  0  0.3947E-05  0  0.2445E-05
   (  4, 16, 17)  (  4, 16, 17)  (  4, 16, 17)  (  4, 16, 17)  (  4, 16, 17)
  0  0.1483E-05  0  0.1221E-05  0  0.7302E-06  0  0.3769E-06  0  0.2576E-06
   (  4, 16, 17)  (  4, 16, 17)  (  4, 16, 17)  (  4, 16, 17)  (  3, 17, 17)
  1 -0.2828E-06  0 -0.2638E-06  0 -0.2119E-06  0  0.1554E-06  0  0.1426E-06
   (  3, 21,  5)  (  3, 21,  5)  (  3, 21,  5)  (  4, 16, 17)  (  4, 16, 17)
  0  0.1070E-06  0  0.9353E-07  0  0.6529E-07  0  0.4998E-07  0  0.3881E-07
   (  4, 16, 17)  (  4, 16, 17)  (  4, 20,  2)  (  4, 20,  2)  (  4, 20,  2)
  0  0.3322E-07  0  0.2950E-07  0  0.2385E-07  0  0.1579E-07  0  0.1218E-07
   (  4, 20,  2)  (  4, 20,  2)  (  4, 20,  2)  (  4, 20,  2)  (  4, 16, 17)
  0  0.9752E-08  1  0.9278E-08
   (  4, 16, 17)  (  4, 16, 17)



 OUTPUT CONTROL FOR STRESS PERIOD   75   TIME STEP    1
    SAVE HEAD FOR ALL LAYERS
    SAVE DRAWDOWN FOR ALL LAYERS
    SAVE BUDGET
    PRINT BUDGET
 UBDSV1 SAVING "         STORAGE" ON UNIT   9 AT TIME STEP  1, STRESS PERIOD  75
 UBDSV2 SAVING "   CONSTANT HEAD" ON UNIT   9 AT TIME STEP  1, STRESS PERIOD  75
 UBDSV1 SAVING "FLOW RIGHT FACE " ON UNIT   9 AT TIME STEP  1, STRESS PERIOD  75
 UBDSV1 SAVING "FLOW FRONT FACE " ON UNIT   9 AT TIME STEP  1, STRESS PERIOD  75
 UBDSV1 SAVING "FLOW LOWER FACE " ON UNIT   9 AT TIME STEP  1, STRESS PERIOD  75
 UBDSV3 SAVING "        RECHARGE" ON UNIT   9 AT TIME STEP  1, STRESS PERIOD  75

 HEAD WILL BE SAVED ON UNIT   37 AT END OF TIME STEP    1, STRESS PERIOD   75

 DRAWDOWN WILL BE SAVED ON UNIT   38 AT END OF TIME STEP    1, STRESS PERIOD   75
1
  VOLUMETRIC BUDGET FOR ENTIRE MODEL AT END OF TIME STEP    1, STRESS PERIOD  75
  ------------------------------------------------------------------------------

     CUMULATIVE VOLUMES      L**3       RATES FOR THIS TIME STEP      L**3/T
     ------------------                 ------------------------

           IN:                                      IN:
           ---                                      ---
             STORAGE =       10572.7773               STORAGE =       4.2586E-04
       CONSTANT HEAD =       19581.9102         CONSTANT HEAD =       8.1113E-04
            RECHARGE =         845.1064              RECHARGE =       9.7813E-05

            TOTAL IN =       30999.7930              TOTAL IN =       1.3348E-03

          OUT:                                     OUT:
          ----                                     ----
             STORAGE =        7070.3037               STORAGE =       7.0124E-06
       CONSTANT HEAD =       23930.3047         CONSTANT HEAD =       1.3279E-03
            RECHARGE =           0.0000              RECHARGE =           0.0000

           TOTAL OUT =       31000.6094             TOTAL OUT =       1.3349E-03

            IN - OUT =          -0.8164              IN - OUT =      -8.7661E-08

 PERCENT DISCREPANCY =          -0.00     PERCENT DISCREPANCY =          -0.01






         TIME SUMMARY AT END OF TIME STEP    1 IN STRESS PERIOD   75
                    SECONDS     MINUTES      HOURS       DAYS        YEARS
                    -----------------------------------------------------------
   TIME STEP LENGTH  86400.      1440.0      24.000      1.0000     2.73785E-03
 STRESS PERIOD TIME  86400.      1440.0      24.000      1.0000     2.73785E-03
         TOTAL TIME 8.64000E+06 1.44000E+05  2400.0      100.00     0.27379    
1
1
                            STRESS PERIOD NO.   76, LENGTH =   86400.00    
                            -----------------------------------------------

                              NUMBER OF TIME STEPS =     1

                               MULTIPLIER FOR DELT =     1.000

                            INITIAL TIME STEP SIZE =   86400.00    

 REUSING RECH FROM LAST STRESS PERIOD

 CHD NO.   LAYER   ROW   COL    START HEAD        END HEAD         IFACE           
 ----------------------------------------------------------------------------------
      1      4      1      1       109.8           109.8           0.000    
      2      5      1      1       109.8           109.8           0.000    
      3      4      1      2       109.8           109.8           0.000    
      4      5      1      2       109.8           109.8           0.000    
      5      4      1      3       109.8           109.8           0.000    
      6      5      1      3       109.8           109.8           0.000    
      7      4      1      4       109.8           109.8           0.000    
      8      5      1      4       109.8           109.8           0.000    
      9      4      1      5       109.8           109.8           0.000    
     10      5      1      5       109.8           109.8           0.000    
     11      4      1      6       109.8           109.8           0.000    
     12      5      1      6       109.8           109.8           0.000    
     13      4      1      7       109.8           109.8           0.000    
     14      5      1      7       109.8           109.8           0.000    
     15      4      1      8       109.8           109.8           0.000    
     16      5      1      8       109.8           109.8           0.000    
     17      4      1      9       109.8           109.8           0.000    
     18      5      1      9       109.8           109.8           0.000    
     19      4      1     10       109.8           109.8           0.000    
     20      5      1     10       109.8           109.8           0.000    
     21      4      1     11       109.8           109.8           0.000    
     22      5      1     11       109.8           109.8           0.000    
     23      4      1     12       109.8           109.8           0.000    
     24      5      1     12       109.8           109.8           0.000    
     25      4      1     13       109.8           109.8           0.000    
     26      5      1     13       109.8           109.8           0.000    
     27      4      1     14       109.8           109.8           0.000    
     28      5      1     14       109.8           109.8           0.000    
     29      4      1     15       109.8           109.8           0.000    
     30      5      1     15       109.8           109.8           0.000    
     31      4      1     16       109.8           109.8           0.000    
     32      5      1     16       109.8           109.8           0.000    
     33      4      1     17       109.8           109.8           0.000    
     34      5      1     17       109.8           109.8           0.000    
     35      4     17     17       109.8           109.8           0.000    
     36      5     17     17       109.8           109.8           0.000    
     37      4     18     17       109.8           109.8           0.000    
     38      5     18     17       109.8           109.8           0.000    
     39      4     18     16       109.7           109.8           0.000    
     40      5     18     16       109.7           109.8           0.000    
     41      4     19     16       109.7           109.8           0.000    
     42      5     19     16       109.7           109.8           0.000    
     43      4     19     15       109.7           109.8           0.000    
     44      5     19     15       109.7           109.8           0.000    
     45      4     20     15       109.7           109.8           0.000    
     46      5     20     15       109.7           109.8           0.000    
     47      4     20     14       109.7           109.8           0.000    
     48      5     20     14       109.7           109.8           0.000    
     49      4     20     13       109.7           109.8           0.000    
     50      5     20     13       109.7           109.8           0.000    
     51      4     20     12       109.7           109.8           0.000    
     52      5     20     12       109.7           109.8           0.000    
     53      4     20     11       109.7           109.8           0.000    
     54      5     20     11       109.7           109.8           0.000    
     55      4     21     11       109.7           109.8           0.000    
     56      5     21     11       109.7           109.8           0.000    
     57      4     21     10       109.7           109.8           0.000    
     58      5     21     10       109.7           109.8           0.000    
     59      4     21      9       109.7           109.8           0.000    
     60      5     21      9       109.7           109.8           0.000    
     61      4     21      8       109.7           109.8           0.000    
     62      5     21      8       109.7           109.8           0.000    
     63      4     21      7       109.7           109.8           0.000    
     64      5     21      7       109.7           109.8           0.000    
     65      4     21      6       109.7           109.8           0.000    
     66      5     21      6       109.7           109.8           0.000    
     67      4     21      5       109.7           109.7           0.000    
     68      5     21      5       109.7           109.7           0.000    
     69      4     22      5       109.7           109.7           0.000    
     70      5     22      5       109.7           109.7           0.000    
     71      4     22      4       109.7           109.7           0.000    
     72      5     22      4       109.7           109.7           0.000    
     73      4     22      3       109.7           109.7           0.000    
     74      5     22      3       109.7           109.7           0.000    
     75      4     22      2       109.7           109.7           0.000    
     76      5     22      2       109.7           109.7           0.000    
     77      4     22      1       109.7           109.7           0.000    
     78      5     22      1       109.7           109.7           0.000    


     78 TIME-VARIANT SPECIFIED-HEAD CELLS

 SOLVING FOR HEAD 


     3 CALLS TO PCG ROUTINE FOR TIME STEP   1 IN STRESS PERIOD   76
    46 TOTAL ITERATIONS

 MAXIMUM HEAD CHANGE FOR EACH ITERATION (1 INDICATES THE FIRST INNER ITERATION):

    HEAD CHANGE    HEAD CHANGE    HEAD CHANGE    HEAD CHANGE    HEAD CHANGE 
   LAYER,ROW,COL  LAYER,ROW,COL  LAYER,ROW,COL  LAYER,ROW,COL  LAYER,ROW,COL
 ---------------------------------------------------------------------------
  1  0.5095E-01  0 -0.3433E-01  0  0.2968E-01  0  0.2319E-01  0  0.3232E-01
   (  5, 21,  2)  (  5, 17,  1)  (  5, 16,  2)  (  5, 17,  1)  (  5, 19,  1)
  0  0.1945E-01  0 -0.1657E-01  0 -0.1229E-01  0  0.1083E-01  0 -0.6248E-02
   (  5, 20,  1)  (  5, 18,  1)  (  5, 19,  1)  (  5, 18,  1)  (  5, 18,  4)
  0  0.5582E-02  0 -0.3141E-02  0  0.3001E-02  0  0.2410E-02  0  0.1396E-02
   (  5, 17,  3)  (  5, 16,  2)  (  5, 14,  1)  (  5, 12,  5)  (  5, 19,  3)
  0  0.1013E-02  0 -0.8018E-03  0 -0.6510E-03  0 -0.9136E-03  0  0.3060E-03
   (  5, 18,  1)  (  5, 18,  2)  (  5, 16,  3)  (  5, 19,  3)  (  5, 18,  3)
  0 -0.2665E-03  0  0.2674E-03  0 -0.1920E-03  0  0.2021E-03  0  0.9352E-04
   (  5, 17,  2)  (  5, 16,  1)  (  5, 19,  1)  (  5, 19,  2)  (  5, 17,  2)
  0  0.7685E-04  0 -0.4336E-04  0  0.3545E-04  0  0.2471E-04  0 -0.1848E-04
   (  5, 20,  3)  (  5, 15,  4)  (  5,  6,  1)  (  5, 15,  2)  (  5, 14,  1)
  1  0.1462E-04  0 -0.1143E-04  0  0.1416E-04  0  0.1272E-04  0 -0.1113E-04
   (  5, 17,  2)  (  5, 19,  1)  (  5, 14,  1)  (  5, 18,  1)  (  5,  6,  1)
  0 -0.9100E-05  0  0.7770E-05  0 -0.5673E-05  0  0.4008E-05  0 -0.2757E-05
   (  5, 13,  3)  (  5, 19,  1)  (  5, 15,  4)  (  5, 16,  3)  (  5, 20,  1)
  0  0.1927E-05  0 -0.2167E-05  0 -0.1359E-05  0  0.1046E-05  0 -0.8118E-06
   (  5, 14,  1)  (  5, 18,  2)  (  5, 15,  5)  (  5, 19,  2)  (  5, 19,  3)
  1  0.5051E-06
   (  5, 18,  2)

 MAXIMUM RESIDUAL FOR EACH ITERATION (1 INDICATES THE FIRST INNER ITERATION):

    RESIDUAL       RESIDUAL       RESIDUAL       RESIDUAL       RESIDUAL    
   LAYER,ROW,COL  LAYER,ROW,COL  LAYER,ROW,COL  LAYER,ROW,COL  LAYER,ROW,COL
 ---------------------------------------------------------------------------
  1 -0.1513E-02  0 -0.1361E-02  0 -0.1221E-02  0 -0.1030E-02  0 -0.8121E-03
   (  3, 17, 17)  (  3, 17, 17)  (  3, 17, 17)  (  3, 17, 17)  (  3, 17, 17)
  0 -0.6003E-03  0 -0.3988E-03  0 -0.2410E-03  0 -0.1429E-03  0 -0.9066E-04
   (  3, 17, 17)  (  3, 17, 17)  (  3, 17, 17)  (  3, 20, 11)  (  3, 20, 11)
  0 -0.6526E-04  0 -0.6128E-04  0 -0.5114E-04  0 -0.4070E-04  0 -0.3173E-04
   (  4, 16, 17)  (  4, 16, 17)  (  4, 16, 17)  (  4, 16, 17)  (  4, 16, 17)
  0 -0.2385E-04  0 -0.2140E-04  0 -0.1579E-04  0 -0.1112E-04  0 -0.7626E-05
   (  4, 16, 17)  (  4, 16, 17)  (  4, 16, 17)  (  4, 16, 17)  (  4, 16, 17)
  0 -0.6032E-05  0 -0.5180E-05  0 -0.4539E-05  0 -0.3117E-05  0  0.1954E-05
   (  4, 16, 17)  (  4, 16, 17)  (  4, 16, 17)  (  4, 16, 17)  (  3, 21,  6)
  0  0.1204E-05  0  0.6446E-06  0  0.3191E-06  0 -0.2113E-06  0 -0.1941E-06
   (  3, 21,  6)  (  3, 21,  6)  (  3, 21,  6)  (  3, 17, 17)  (  3, 17, 17)
  1 -0.2234E-06  0 -0.2126E-06  0 -0.1878E-06  0 -0.1738E-06  0 -0.1372E-06
   (  3, 17, 17)  (  3, 17, 17)  (  3, 17, 17)  (  3, 17, 17)  (  3, 17, 17)
  0 -0.1018E-06  0 -0.8844E-07  0 -0.5964E-07  0 -0.4369E-07  0 -0.3008E-07
   (  3, 17, 17)  (  3, 17, 17)  (  3, 17, 17)  (  3, 17, 17)  (  3, 17, 17)
  0 -0.2738E-07  0 -0.1913E-07  0 -0.1437E-07  0 -0.1111E-07  0 -0.9239E-08
   (  3, 17, 17)  (  3, 17, 17)  (  3, 17, 17)  (  4, 20,  2)  (  4, 16, 17)
  1 -0.9113E-08
   (  4, 16, 17)



 OUTPUT CONTROL FOR STRESS PERIOD   76   TIME STEP    1
    SAVE HEAD FOR ALL LAYERS
    SAVE DRAWDOWN FOR ALL LAYERS
    SAVE BUDGET
    PRINT BUDGET
 UBDSV1 SAVING "         STORAGE" ON UNIT   9 AT TIME STEP  1, STRESS PERIOD  76
 UBDSV2 SAVING "   CONSTANT HEAD" ON UNIT   9 AT TIME STEP  1, STRESS PERIOD  76
 UBDSV1 SAVING "FLOW RIGHT FACE " ON UNIT   9 AT TIME STEP  1, STRESS PERIOD  76
 UBDSV1 SAVING "FLOW FRONT FACE " ON UNIT   9 AT TIME STEP  1, STRESS PERIOD  76
 UBDSV1 SAVING "FLOW LOWER FACE " ON UNIT   9 AT TIME STEP  1, STRESS PERIOD  76
 UBDSV3 SAVING "        RECHARGE" ON UNIT   9 AT TIME STEP  1, STRESS PERIOD  76

 HEAD WILL BE SAVED ON UNIT   37 AT END OF TIME STEP    1, STRESS PERIOD   76

 DRAWDOWN WILL BE SAVED ON UNIT   38 AT END OF TIME STEP    1, STRESS PERIOD   76
1
  VOLUMETRIC BUDGET FOR ENTIRE MODEL AT END OF TIME STEP    1, STRESS PERIOD  76
  ------------------------------------------------------------------------------

     CUMULATIVE VOLUMES      L**3       RATES FOR THIS TIME STEP      L**3/T
     ------------------                 ------------------------

           IN:                                      IN:
           ---                                      ---
             STORAGE =       10572.7773               STORAGE =           0.0000
       CONSTANT HEAD =       19668.7637         CONSTANT HEAD =       1.0053E-03
            RECHARGE =         853.5575              RECHARGE =       9.7813E-05

            TOTAL IN =       31095.0977              TOTAL IN =       1.1031E-03

          OUT:                                     OUT:
          ----                                     ----
             STORAGE =        7111.2891               STORAGE =       4.7437E-04
       CONSTANT HEAD =       23984.6309         CONSTANT HEAD =       6.2878E-04
            RECHARGE =           0.0000              RECHARGE =           0.0000

           TOTAL OUT =       31095.9199             TOTAL OUT =       1.1031E-03

            IN - OUT =          -0.8223              IN - OUT =      -8.2073E-08

 PERCENT DISCREPANCY =          -0.00     PERCENT DISCREPANCY =          -0.01






         TIME SUMMARY AT END OF TIME STEP    1 IN STRESS PERIOD   76
                    SECONDS     MINUTES      HOURS       DAYS        YEARS
                    -----------------------------------------------------------
   TIME STEP LENGTH  86400.      1440.0      24.000      1.0000     2.73785E-03
 STRESS PERIOD TIME  86400.      1440.0      24.000      1.0000     2.73785E-03
         TOTAL TIME 8.72640E+06 1.45440E+05  2424.0      101.00     0.27652    
1
1
                            STRESS PERIOD NO.   77, LENGTH =   86400.00    
                            -----------------------------------------------

                              NUMBER OF TIME STEPS =     1

                               MULTIPLIER FOR DELT =     1.000

                            INITIAL TIME STEP SIZE =   86400.00    

 REUSING RECH FROM LAST STRESS PERIOD

 CHD NO.   LAYER   ROW   COL    START HEAD        END HEAD         IFACE           
 ----------------------------------------------------------------------------------
      1      4      1      1       109.8           109.8           0.000    
      2      5      1      1       109.8           109.8           0.000    
      3      4      1      2       109.8           109.8           0.000    
      4      5      1      2       109.8           109.8           0.000    
      5      4      1      3       109.8           109.8           0.000    
      6      5      1      3       109.8           109.8           0.000    
      7      4      1      4       109.8           109.8           0.000    
      8      5      1      4       109.8           109.8           0.000    
      9      4      1      5       109.8           109.8           0.000    
     10      5      1      5       109.8           109.8           0.000    
     11      4      1      6       109.8           109.8           0.000    
     12      5      1      6       109.8           109.8           0.000    
     13      4      1      7       109.8           109.8           0.000    
     14      5      1      7       109.8           109.8           0.000    
     15      4      1      8       109.8           109.8           0.000    
     16      5      1      8       109.8           109.8           0.000    
     17      4      1      9       109.8           109.8           0.000    
     18      5      1      9       109.8           109.8           0.000    
     19      4      1     10       109.8           109.8           0.000    
     20      5      1     10       109.8           109.8           0.000    
     21      4      1     11       109.8           109.8           0.000    
     22      5      1     11       109.8           109.8           0.000    
     23      4      1     12       109.8           109.8           0.000    
     24      5      1     12       109.8           109.8           0.000    
     25      4      1     13       109.8           109.8           0.000    
     26      5      1     13       109.8           109.8           0.000    
     27      4      1     14       109.8           109.8           0.000    
     28      5      1     14       109.8           109.8           0.000    
     29      4      1     15       109.8           109.8           0.000    
     30      5      1     15       109.8           109.8           0.000    
     31      4      1     16       109.8           109.8           0.000    
     32      5      1     16       109.8           109.8           0.000    
     33      4      1     17       109.8           109.8           0.000    
     34      5      1     17       109.8           109.8           0.000    
     35      4     17     17       109.8           109.8           0.000    
     36      5     17     17       109.8           109.8           0.000    
     37      4     18     17       109.8           109.8           0.000    
     38      5     18     17       109.8           109.8           0.000    
     39      4     18     16       109.8           109.8           0.000    
     40      5     18     16       109.8           109.8           0.000    
     41      4     19     16       109.8           109.8           0.000    
     42      5     19     16       109.8           109.8           0.000    
     43      4     19     15       109.8           109.8           0.000    
     44      5     19     15       109.8           109.8           0.000    
     45      4     20     15       109.8           109.8           0.000    
     46      5     20     15       109.8           109.8           0.000    
     47      4     20     14       109.8           109.8           0.000    
     48      5     20     14       109.8           109.8           0.000    
     49      4     20     13       109.8           109.8           0.000    
     50      5     20     13       109.8           109.8           0.000    
     51      4     20     12       109.8           109.8           0.000    
     52      5     20     12       109.8           109.8           0.000    
     53      4     20     11       109.8           109.8           0.000    
     54      5     20     11       109.8           109.8           0.000    
     55      4     21     11       109.8           109.8           0.000    
     56      5     21     11       109.8           109.8           0.000    
     57      4     21     10       109.8           109.8           0.000    
     58      5     21     10       109.8           109.8           0.000    
     59      4     21      9       109.8           109.8           0.000    
     60      5     21      9       109.8           109.8           0.000    
     61      4     21      8       109.8           109.7           0.000    
     62      5     21      8       109.8           109.7           0.000    
     63      4     21      7       109.8           109.7           0.000    
     64      5     21      7       109.8           109.7           0.000    
     65      4     21      6       109.8           109.7           0.000    
     66      5     21      6       109.8           109.7           0.000    
     67      4     21      5       109.7           109.7           0.000    
     68      5     21      5       109.7           109.7           0.000    
     69      4     22      5       109.7           109.7           0.000    
     70      5     22      5       109.7           109.7           0.000    
     71      4     22      4       109.7           109.7           0.000    
     72      5     22      4       109.7           109.7           0.000    
     73      4     22      3       109.7           109.7           0.000    
     74      5     22      3       109.7           109.7           0.000    
     75      4     22      2       109.7           109.7           0.000    
     76      5     22      2       109.7           109.7           0.000    
     77      4     22      1       109.7           109.7           0.000    
     78      5     22      1       109.7           109.7           0.000    


     78 TIME-VARIANT SPECIFIED-HEAD CELLS

 SOLVING FOR HEAD 


     3 CALLS TO PCG ROUTINE FOR TIME STEP   1 IN STRESS PERIOD   77
    41 TOTAL ITERATIONS

 MAXIMUM HEAD CHANGE FOR EACH ITERATION (1 INDICATES THE FIRST INNER ITERATION):

    HEAD CHANGE    HEAD CHANGE    HEAD CHANGE    HEAD CHANGE    HEAD CHANGE 
   LAYER,ROW,COL  LAYER,ROW,COL  LAYER,ROW,COL  LAYER,ROW,COL  LAYER,ROW,COL
 ---------------------------------------------------------------------------
  1 -0.1706E-01  0  0.1237E-01  0 -0.9368E-02  0  0.8018E-02  0 -0.9989E-02
   (  5, 21,  2)  (  5, 18,  1)  (  5, 16,  2)  (  5, 21,  2)  (  5, 19,  1)
  0 -0.5576E-02  0  0.4862E-02  0  0.3448E-02  0 -0.2999E-02  0  0.1625E-02
   (  5, 20,  1)  (  5, 18,  1)  (  5, 19,  1)  (  5, 18,  1)  (  5, 18,  4)
  0 -0.1532E-02  0  0.1018E-02  0 -0.1044E-02  0 -0.8354E-03  0 -0.4701E-03
   (  5, 17,  3)  (  5, 16,  3)  (  5, 15,  1)  (  5, 12,  5)  (  5, 19,  3)
  0  0.3783E-03  0 -0.2123E-03  0  0.2177E-03  0 -0.1708E-03  0  0.1138E-03
   (  5, 18,  3)  (  5, 19,  4)  (  5, 19,  3)  (  5, 19,  1)  (  5, 17,  2)
  0 -0.6931E-04  0  0.7793E-04  0  0.5794E-04  0 -0.5132E-04  0 -0.2781E-04
   (  5, 16,  1)  (  5, 17,  2)  (  5, 19,  1)  (  5, 19,  2)  (  5, 17,  2)
  0 -0.2410E-04  0  0.1366E-04  0  0.1082E-04  0 -0.1100E-04  0  0.5576E-05
   (  5, 20,  3)  (  5, 15,  4)  (  5, 16,  2)  (  5, 16,  1)  (  5,  6,  1)
  1  0.4092E-05  0 -0.5027E-05  0 -0.4937E-05  0  0.3311E-05  0 -0.3459E-05
   (  5, 17,  1)  (  5, 18,  1)  (  5, 17,  2)  (  5, 16,  1)  (  5, 20,  1)
  0 -0.2616E-05  0 -0.2084E-05  0  0.1724E-05  0 -0.1411E-05  0  0.9930E-06
   (  5,  8,  1)  (  5, 19,  1)  (  5, 15,  4)  (  5, 16,  3)  (  5, 17,  4)
  1 -0.7310E-06
   (  5, 17,  4)

 MAXIMUM RESIDUAL FOR EACH ITERATION (1 INDICATES THE FIRST INNER ITERATION):

    RESIDUAL       RESIDUAL       RESIDUAL       RESIDUAL       RESIDUAL    
   LAYER,ROW,COL  LAYER,ROW,COL  LAYER,ROW,COL  LAYER,ROW,COL  LAYER,ROW,COL
 ---------------------------------------------------------------------------
  1  0.3474E-03  0  0.2999E-03  0  0.2620E-03  0  0.2129E-03  0  0.1601E-03
   (  3, 17, 17)  (  3, 17, 17)  (  3, 17, 17)  (  3, 17, 17)  (  3, 17, 17)
  0  0.1120E-03  0  0.7000E-04  0  0.4163E-04  0  0.2532E-04  0  0.1884E-04
   (  3, 17, 17)  (  3, 17, 17)  (  3, 20, 11)  (  3, 17, 17)  (  4, 16, 17)
  0  0.1696E-04  0  0.1523E-04  0  0.1262E-04  0  0.9393E-05  0 -0.6689E-05
   (  4, 16, 17)  (  4, 16, 17)  (  4, 16, 17)  (  4, 16, 17)  (  5, 16, 17)
  0  0.4313E-05  0  0.2956E-05  0  0.2410E-05  0  0.1819E-05  0 -0.1418E-05
   (  4, 16, 17)  (  4, 16, 17)  (  4, 16, 17)  (  4, 16, 17)  (  3, 21,  6)
  0 -0.1351E-05  0 -0.1106E-05  0 -0.9594E-06  0 -0.7178E-06  0 -0.4775E-06
   (  3, 21,  6)  (  3, 21,  6)  (  3, 21,  6)  (  3, 21,  6)  (  3, 21,  6)
  0 -0.3014E-06  0 -0.1668E-06  0 -0.1134E-06  0 -0.7922E-07  0  0.4863E-07
   (  3, 21,  6)  (  3, 21,  6)  (  3, 21,  6)  (  3, 21,  6)  (  5, 15, 17)
  1  0.4656E-07  0  0.4121E-07  0 -0.3530E-07  0 -0.3241E-07  0 -0.2500E-07
   (  5, 15, 17)  (  5, 15, 17)  (  3, 20, 11)  (  3, 20, 11)  (  3, 20, 11)
  0  0.1762E-07  0  0.1601E-07  0  0.1092E-07  0 -0.9185E-08  0 -0.8629E-08
   (  4, 16, 17)  (  4, 16, 17)  (  4, 16, 17)  (  4, 20,  3)  (  4, 20,  3)
  1 -0.6913E-08
   (  4, 20,  3)



 OUTPUT CONTROL FOR STRESS PERIOD   77   TIME STEP    1
    SAVE HEAD FOR ALL LAYERS
    SAVE DRAWDOWN FOR ALL LAYERS
    SAVE BUDGET
    PRINT BUDGET
 UBDSV1 SAVING "         STORAGE" ON UNIT   9 AT TIME STEP  1, STRESS PERIOD  77
 UBDSV2 SAVING "   CONSTANT HEAD" ON UNIT   9 AT TIME STEP  1, STRESS PERIOD  77
 UBDSV1 SAVING "FLOW RIGHT FACE " ON UNIT   9 AT TIME STEP  1, STRESS PERIOD  77
 UBDSV1 SAVING "FLOW FRONT FACE " ON UNIT   9 AT TIME STEP  1, STRESS PERIOD  77
 UBDSV1 SAVING "FLOW LOWER FACE " ON UNIT   9 AT TIME STEP  1, STRESS PERIOD  77
 UBDSV3 SAVING "        RECHARGE" ON UNIT   9 AT TIME STEP  1, STRESS PERIOD  77

 HEAD WILL BE SAVED ON UNIT   37 AT END OF TIME STEP    1, STRESS PERIOD   77

 DRAWDOWN WILL BE SAVED ON UNIT   38 AT END OF TIME STEP    1, STRESS PERIOD   77
1
  VOLUMETRIC BUDGET FOR ENTIRE MODEL AT END OF TIME STEP    1, STRESS PERIOD  77
  ------------------------------------------------------------------------------

     CUMULATIVE VOLUMES      L**3       RATES FOR THIS TIME STEP      L**3/T
     ------------------                 ------------------------

           IN:                                      IN:
           ---                                      ---
             STORAGE =       10585.2627               STORAGE =       1.4450E-04
       CONSTANT HEAD =       19723.5254         CONSTANT HEAD =       6.3381E-04
            RECHARGE =         862.0085              RECHARGE =       9.7813E-05

            TOTAL IN =       31170.7969              TOTAL IN =       8.7613E-04

          OUT:                                     OUT:
          ----                                     ----
             STORAGE =        7111.2891               STORAGE =           0.0000
       CONSTANT HEAD =       24060.3359         CONSTANT HEAD =       8.7621E-04
            RECHARGE =           0.0000              RECHARGE =           0.0000

           TOTAL OUT =       31171.6250             TOTAL OUT =       8.7621E-04

            IN - OUT =          -0.8281              IN - OUT =      -8.7486E-08

 PERCENT DISCREPANCY =          -0.00     PERCENT DISCREPANCY =          -0.01






         TIME SUMMARY AT END OF TIME STEP    1 IN STRESS PERIOD   77
                    SECONDS     MINUTES      HOURS       DAYS        YEARS
                    -----------------------------------------------------------
   TIME STEP LENGTH  86400.      1440.0      24.000      1.0000     2.73785E-03
 STRESS PERIOD TIME  86400.      1440.0      24.000      1.0000     2.73785E-03
         TOTAL TIME 8.81280E+06 1.46880E+05  2448.0      102.00     0.27926    
1
1
                            STRESS PERIOD NO.   78, LENGTH =   259200.0    
                            -----------------------------------------------

                              NUMBER OF TIME STEPS =     3

                               MULTIPLIER FOR DELT =     1.000

                            INITIAL TIME STEP SIZE =   86400.00    

 REUSING RECH FROM LAST STRESS PERIOD

 CHD NO.   LAYER   ROW   COL    START HEAD        END HEAD         IFACE           
 ----------------------------------------------------------------------------------
      1      4      1      1       109.8           110.2           0.000    
      2      5      1      1       109.8           110.2           0.000    
      3      4      1      2       109.8           110.2           0.000    
      4      5      1      2       109.8           110.2           0.000    
      5      4      1      3       109.8           110.2           0.000    
      6      5      1      3       109.8           110.2           0.000    
      7      4      1      4       109.8           110.2           0.000    
      8      5      1      4       109.8           110.2           0.000    
      9      4      1      5       109.8           110.2           0.000    
     10      5      1      5       109.8           110.2           0.000    
     11      4      1      6       109.8           110.2           0.000    
     12      5      1      6       109.8           110.2           0.000    
     13      4      1      7       109.8           110.2           0.000    
     14      5      1      7       109.8           110.2           0.000    
     15      4      1      8       109.8           110.2           0.000    
     16      5      1      8       109.8           110.2           0.000    
     17      4      1      9       109.8           110.2           0.000    
     18      5      1      9       109.8           110.2           0.000    
     19      4      1     10       109.8           110.2           0.000    
     20      5      1     10       109.8           110.2           0.000    
     21      4      1     11       109.8           110.2           0.000    
     22      5      1     11       109.8           110.2           0.000    
     23      4      1     12       109.8           110.2           0.000    
     24      5      1     12       109.8           110.2           0.000    
     25      4      1     13       109.8           110.2           0.000    
     26      5      1     13       109.8           110.2           0.000    
     27      4      1     14       109.8           110.2           0.000    
     28      5      1     14       109.8           110.2           0.000    
     29      4      1     15       109.8           110.2           0.000    
     30      5      1     15       109.8           110.2           0.000    
     31      4      1     16       109.8           110.2           0.000    
     32      5      1     16       109.8           110.2           0.000    
     33      4      1     17       109.8           110.2           0.000    
     34      5      1     17       109.8           110.2           0.000    
     35      4     17     17       109.8           110.5           0.000    
     36      5     17     17       109.8           110.5           0.000    
     37      4     18     17       109.8           110.5           0.000    
     38      5     18     17       109.8           110.5           0.000    
     39      4     18     16       109.8           110.5           0.000    
     40      5     18     16       109.8           110.5           0.000    
     41      4     19     16       109.8           110.5           0.000    
     42      5     19     16       109.8           110.5           0.000    
     43      4     19     15       109.8           110.4           0.000    
     44      5     19     15       109.8           110.4           0.000    
     45      4     20     15       109.8           110.4           0.000    
     46      5     20     15       109.8           110.4           0.000    
     47      4     20     14       109.8           110.4           0.000    
     48      5     20     14       109.8           110.4           0.000    
     49      4     20     13       109.8           110.4           0.000    
     50      5     20     13       109.8           110.4           0.000    
     51      4     20     12       109.8           110.4           0.000    
     52      5     20     12       109.8           110.4           0.000    
     53      4     20     11       109.8           110.4           0.000    
     54      5     20     11       109.8           110.4           0.000    
     55      4     21     11       109.8           110.4           0.000    
     56      5     21     11       109.8           110.4           0.000    
     57      4     21     10       109.8           110.4           0.000    
     58      5     21     10       109.8           110.4           0.000    
     59      4     21      9       109.8           110.4           0.000    
     60      5     21      9       109.8           110.4           0.000    
     61      4     21      8       109.7           110.4           0.000    
     62      5     21      8       109.7           110.4           0.000    
     63      4     21      7       109.7           110.4           0.000    
     64      5     21      7       109.7           110.4           0.000    
     65      4     21      6       109.7           110.4           0.000    
     66      5     21      6       109.7           110.4           0.000    
     67      4     21      5       109.7           110.4           0.000    
     68      5     21      5       109.7           110.4           0.000    
     69      4     22      5       109.7           110.4           0.000    
     70      5     22      5       109.7           110.4           0.000    
     71      4     22      4       109.7           110.4           0.000    
     72      5     22      4       109.7           110.4           0.000    
     73      4     22      3       109.7           110.4           0.000    
     74      5     22      3       109.7           110.4           0.000    
     75      4     22      2       109.7           110.4           0.000    
     76      5     22      2       109.7           110.4           0.000    
     77      4     22      1       109.7           110.4           0.000    
     78      5     22      1       109.7           110.4           0.000    


     78 TIME-VARIANT SPECIFIED-HEAD CELLS

 SOLVING FOR HEAD 


     4 CALLS TO PCG ROUTINE FOR TIME STEP   1 IN STRESS PERIOD   78
    67 TOTAL ITERATIONS

 MAXIMUM HEAD CHANGE FOR EACH ITERATION (1 INDICATES THE FIRST INNER ITERATION):

    HEAD CHANGE    HEAD CHANGE    HEAD CHANGE    HEAD CHANGE    HEAD CHANGE 
   LAYER,ROW,COL  LAYER,ROW,COL  LAYER,ROW,COL  LAYER,ROW,COL  LAYER,ROW,COL
 ---------------------------------------------------------------------------
  1  0.4782      0 -0.3175      0  0.2773      0  0.2170      0  0.2985    
   (  5, 21,  2)  (  5, 17,  1)  (  5, 16,  2)  (  5, 17,  1)  (  5, 19,  1)
  0  0.1769      0 -0.1530      0 -0.1132      0  0.1005      0 -0.5854E-01
   (  5, 20,  1)  (  5, 18,  1)  (  5, 19,  1)  (  5, 18,  1)  (  5, 18,  4)
  0  0.5084E-01  0 -0.3247E-01  0  0.2899E-01  0  0.2181E-01  0  0.1343E-01
   (  5, 17,  3)  (  5, 16,  2)  (  5, 14,  1)  (  5, 12,  5)  (  5, 19,  3)
  0 -0.1127E-01  0 -0.7827E-02  0  0.5711E-02  0 -0.8747E-02  0 -0.2818E-02
   (  5, 18,  3)  (  5, 17,  1)  (  5, 19,  1)  (  5, 19,  3)  (  5, 17,  2)
  0  0.2530E-02  0 -0.2679E-02  0  0.1719E-02  0  0.1761E-02  0  0.8993E-03
   (  5, 17,  1)  (  5, 17,  2)  (  5, 16,  2)  (  5, 19,  2)  (  5, 18,  5)
  0  0.6784E-03  0  0.4388E-03  0  0.3477E-03  0  0.3155E-03  0 -0.1696E-03
   (  5, 20,  3)  (  5, 14,  2)  (  5, 19,  2)  (  5, 15,  2)  (  5, 18,  1)
  1  0.9088E-03  0 -0.1031E-02  0  0.8913E-03  0  0.1140E-02  0  0.5527E-03
   (  5, 17,  1)  (  5, 14,  2)  (  5, 14,  2)  (  5,  6,  1)  (  5, 17,  4)
  0 -0.2885E-03  0 -0.2375E-03  0 -0.1117E-03  0 -0.1065E-03  0  0.7040E-04
   (  5,  6,  1)  (  5, 14,  4)  (  5,  7,  3)  (  5, 11,  4)  (  5, 12,  5)
  0 -0.6303E-04  0  0.4579E-04  0 -0.5093E-04  0  0.3997E-04  0 -0.2977E-04
   (  5, 16,  1)  (  5, 14,  1)  (  5, 20,  2)  (  5, 17,  5)  (  5, 14,  4)
  0 -0.2070E-04  0 -0.1831E-04  0  0.1270E-04  0 -0.1270E-04  0 -0.7191E-05
   (  5, 19,  1)  (  5, 13,  2)  (  5, 18,  4)  (  5, 20,  1)  (  5, 14,  1)
  0  0.4575E-05  0 -0.4753E-05  0  0.2620E-05  0  0.2728E-05  0  0.2059E-05
   (  5, 16,  1)  (  5, 16,  2)  (  5, 16,  5)  (  5, 16,  2)  (  5, 19,  1)
  0  0.1713E-05  0 -0.1314E-05  0  0.1018E-05  0 -0.8966E-06  1  0.8474E-05
   (  5, 18,  1)  (  5, 18,  1)  (  5, 20,  2)  (  5, 21,  3)  (  2, 19, 14)
  0 -0.3933E-05  0  0.4079E-05  0  0.1593E-05  0 -0.1623E-05  0  0.1189E-05
   (  5, 15,  1)  (  5, 17,  4)  (  5, 19,  1)  (  5, 18,  1)  (  5, 20,  2)
  0  0.6122E-06  1  0.4410E-06
   (  5, 15,  4)  (  5, 17,  1)

 MAXIMUM RESIDUAL FOR EACH ITERATION (1 INDICATES THE FIRST INNER ITERATION):

    RESIDUAL       RESIDUAL       RESIDUAL       RESIDUAL       RESIDUAL    
   LAYER,ROW,COL  LAYER,ROW,COL  LAYER,ROW,COL  LAYER,ROW,COL  LAYER,ROW,COL
 ---------------------------------------------------------------------------
  1 -0.1377E-01  0 -0.1240E-01  0 -0.1113E-01  0 -0.9438E-02  0 -0.7493E-02
   (  3, 17, 17)  (  3, 17, 17)  (  3, 17, 17)  (  3, 17, 17)  (  3, 17, 17)
  0 -0.5588E-02  0 -0.3724E-02  0 -0.2242E-02  0 -0.1325E-02  0 -0.8371E-03
   (  3, 17, 17)  (  3, 17, 17)  (  3, 17, 17)  (  3, 20, 11)  (  3, 20, 11)
  0 -0.5875E-03  0 -0.5401E-03  0 -0.4608E-03  0 -0.3681E-03  0 -0.2880E-03
   (  4, 16, 17)  (  4, 16, 17)  (  4, 16, 17)  (  4, 16, 17)  (  4, 16, 17)
  0 -0.2090E-03  0 -0.1694E-03  0 -0.1434E-03  0 -0.1023E-03  0 -0.7029E-04
   (  4, 16, 17)  (  4, 16, 17)  (  4, 16, 17)  (  4, 16, 17)  (  4, 16, 17)
  0 -0.6076E-04  0 -0.5000E-04  0 -0.4174E-04  0  0.2857E-04  0  0.1841E-04
   (  4, 16, 17)  (  4, 16, 17)  (  4, 16, 17)  (  3, 21,  6)  (  3, 21,  6)
  0  0.1138E-04  0  0.6119E-05  0  0.4307E-05  0  0.2789E-05  0  0.2464E-05
   (  3, 21,  6)  (  3, 21,  6)  (  3, 21,  6)  (  3, 21,  6)  (  3, 21,  6)
  1  0.6002E-05  0 -0.7147E-05  0 -0.6904E-05  0 -0.3086E-05  0 -0.2572E-05
   (  2, 17, 17)  (  5,  6,  1)  (  5,  6,  1)  (  3, 17, 17)  (  3, 17, 17)
  0 -0.2082E-05  0 -0.1783E-05  0 -0.1342E-05  0 -0.1009E-05  0 -0.8220E-06
   (  3, 17, 17)  (  3, 17, 17)  (  3, 17, 17)  (  3, 17, 17)  (  3, 17, 17)
  0 -0.7423E-06  0 -0.6101E-06  0 -0.4847E-06  0 -0.3408E-06  0 -0.2540E-06
   (  3, 17, 17)  (  3, 17, 17)  (  3, 17, 17)  (  3, 17, 17)  (  3, 17, 17)
  0 -0.2187E-06  0 -0.1664E-06  0 -0.1222E-06  0 -0.7732E-07  0 -0.5769E-07
   (  3, 17, 17)  (  4, 18, 14)  (  4, 18, 14)  (  3, 17, 17)  (  3, 17, 17)
  0 -0.5346E-07  0 -0.3861E-07  0 -0.2841E-07  0 -0.2222E-07  0 -0.1820E-07
   (  3, 17, 17)  (  3, 17, 17)  (  3, 17, 17)  (  3, 17, 17)  (  3, 17, 17)
  0 -0.1182E-07  0 -0.9201E-08  0 -0.7673E-08  0 -0.5043E-08  1  0.1321E-07
   (  3, 17, 17)  (  3, 17, 17)  (  4, 21,  3)  (  3, 17, 17)  (  3, 19, 14)
  0  0.1191E-07  0  0.8999E-08  0  0.7168E-08  0  0.5405E-08  0  0.3964E-08
   (  3, 19, 14)  (  3, 19, 14)  (  3, 19, 14)  (  3, 19, 14)  (  3, 21,  4)
  0  0.3689E-08  1  0.3406E-08
   (  3, 21,  4)  (  3, 21,  4)



 OUTPUT CONTROL FOR STRESS PERIOD   78   TIME STEP    1
    SAVE HEAD FOR ALL LAYERS
    SAVE DRAWDOWN FOR ALL LAYERS
    SAVE BUDGET
    PRINT BUDGET
 UBDSV1 SAVING "         STORAGE" ON UNIT   9 AT TIME STEP  1, STRESS PERIOD  78
 UBDSV2 SAVING "   CONSTANT HEAD" ON UNIT   9 AT TIME STEP  1, STRESS PERIOD  78
 UBDSV1 SAVING "FLOW RIGHT FACE " ON UNIT   9 AT TIME STEP  1, STRESS PERIOD  78
 UBDSV1 SAVING "FLOW FRONT FACE " ON UNIT   9 AT TIME STEP  1, STRESS PERIOD  78
 UBDSV1 SAVING "FLOW LOWER FACE " ON UNIT   9 AT TIME STEP  1, STRESS PERIOD  78
 UBDSV3 SAVING "        RECHARGE" ON UNIT   9 AT TIME STEP  1, STRESS PERIOD  78

 HEAD WILL BE SAVED ON UNIT   37 AT END OF TIME STEP    1, STRESS PERIOD   78

 DRAWDOWN WILL BE SAVED ON UNIT   38 AT END OF TIME STEP    1, STRESS PERIOD   78
1
  VOLUMETRIC BUDGET FOR ENTIRE MODEL AT END OF TIME STEP    1, STRESS PERIOD  78
  ------------------------------------------------------------------------------

     CUMULATIVE VOLUMES      L**3       RATES FOR THIS TIME STEP      L**3/T
     ------------------                 ------------------------

           IN:                                      IN:
           ---                                      ---
             STORAGE =       10585.2627               STORAGE =           0.0000
       CONSTANT HEAD =       20171.0918         CONSTANT HEAD =       5.1802E-03
            RECHARGE =         870.4596              RECHARGE =       9.7813E-05

            TOTAL IN =       31626.8145              TOTAL IN =       5.2780E-03

          OUT:                                     OUT:
          ----                                     ----
             STORAGE =        7567.3130               STORAGE =       5.2781E-03
       CONSTANT HEAD =       24060.3359         CONSTANT HEAD =           0.0000
            RECHARGE =           0.0000              RECHARGE =           0.0000

           TOTAL OUT =       31627.6484             TOTAL OUT =       5.2781E-03

            IN - OUT =          -0.8340              IN - OUT =      -7.6368E-08

 PERCENT DISCREPANCY =          -0.00     PERCENT DISCREPANCY =          -0.00






         TIME SUMMARY AT END OF TIME STEP    1 IN STRESS PERIOD   78
                    SECONDS     MINUTES      HOURS       DAYS        YEARS
                    -----------------------------------------------------------
   TIME STEP LENGTH  86400.      1440.0      24.000      1.0000     2.73785E-03
 STRESS PERIOD TIME  86400.      1440.0      24.000      1.0000     2.73785E-03
         TOTAL TIME 8.89920E+06 1.48320E+05  2472.0      103.00     0.28200    
1

 SOLVING FOR HEAD 
     4 CALLS TO PCG ROUTINE FOR TIME STEP   2 IN STRESS PERIOD   78
    68 TOTAL ITERATIONS

 MAXIMUM HEAD CHANGE FOR EACH ITERATION (1 INDICATES THE FIRST INNER ITERATION):

    HEAD CHANGE    HEAD CHANGE    HEAD CHANGE    HEAD CHANGE    HEAD CHANGE 
   LAYER,ROW,COL  LAYER,ROW,COL  LAYER,ROW,COL  LAYER,ROW,COL  LAYER,ROW,COL
 ---------------------------------------------------------------------------
  1  0.5009      0 -0.3279      0  0.2896      0  0.2270      0  0.3044    
   (  5, 21,  2)  (  5, 17,  1)  (  5, 16,  2)  (  5, 17,  1)  (  5, 19,  1)
  0  0.1811      0 -0.1569      0 -0.1149      0  0.1048      0 -0.6031E-01
   (  5, 20,  1)  (  5, 18,  1)  (  5, 19,  1)  (  5, 18,  1)  (  5, 18,  4)
  0  0.4624E-01  0  0.3027E-01  0 -0.2874E-01  0  0.2170E-01  0  0.1396E-01
   (  5, 17,  3)  (  5, 14,  1)  (  5, 16,  2)  (  5, 12,  5)  (  5, 19,  3)
  0 -0.1318E-01  0  0.6278E-02  0 -0.7509E-02  0 -0.8210E-02  0 -0.3066E-02
   (  5, 18,  2)  (  5, 18,  1)  (  5, 16,  1)  (  5, 19,  3)  (  5, 17,  2)
  0  0.3029E-02  0 -0.2409E-02  0  0.1711E-02  0  0.1864E-02  0  0.9937E-03
   (  5, 17,  1)  (  5, 15,  1)  (  5, 16,  2)  (  5, 19,  2)  (  5, 18,  5)
  0  0.6665E-03  0  0.4487E-03  0  0.4246E-03  0 -0.4009E-03  0  0.2166E-03
   (  5, 20,  3)  (  5, 14,  2)  (  5, 19,  2)  (  5, 18,  1)  (  5, 15,  2)
  1 -0.9906E-03  0  0.1727E-02  0 -0.1002E-02  0 -0.8396E-03  0  0.6025E-03
   (  5, 15,  1)  (  5, 18,  1)  (  5, 18,  1)  (  5, 18,  4)  (  5, 17,  4)
  0  0.4293E-03  0 -0.3482E-03  0  0.1574E-03  0 -0.1469E-03  0 -0.8641E-04
   (  5, 19,  1)  (  5, 14,  4)  (  5, 10,  3)  (  5, 11,  4)  (  5, 14,  3)
  0  0.6856E-04  0 -0.9032E-04  0 -0.8786E-04  0  0.4759E-04  0  0.3995E-04
   (  5, 19,  1)  (  5, 16,  1)  (  5, 20,  1)  (  5, 20,  1)  (  5, 19,  3)
  0 -0.3072E-04  0  0.2475E-04  0 -0.1769E-04  0  0.1139E-04  0  0.9268E-05
   (  5, 19,  3)  (  5, 18,  1)  (  5, 13,  5)  (  5, 19,  3)  (  5, 18,  1)
  0 -0.6928E-05  0  0.5625E-05  0  0.4756E-05  0  0.2988E-05  0 -0.2875E-05
   (  5, 17,  2)  (  5, 15,  3)  (  5, 17,  5)  (  5, 19,  1)  (  5, 20,  2)
  0  0.1712E-05  0  0.1088E-05  0  0.5052E-06  1 -0.7735E-05  0 -0.1020E-04
   (  5, 21,  2)  (  5, 18,  5)  (  5, 19,  1)  (  5, 18,  1)  (  5, 14,  2)
  0  0.5054E-05  0  0.5336E-05  0 -0.2284E-05  0 -0.2126E-05  0  0.1604E-05
   (  5, 17,  1)  (  5, 18,  5)  (  5, 17,  4)  (  5, 19,  1)  (  5, 15,  4)
  0 -0.1035E-05  0  0.6214E-06  1 -0.5956E-06
   (  5, 20,  2)  (  5, 20,  1)  (  5, 20,  1)

 MAXIMUM RESIDUAL FOR EACH ITERATION (1 INDICATES THE FIRST INNER ITERATION):

    RESIDUAL       RESIDUAL       RESIDUAL       RESIDUAL       RESIDUAL    
   LAYER,ROW,COL  LAYER,ROW,COL  LAYER,ROW,COL  LAYER,ROW,COL  LAYER,ROW,COL
 ---------------------------------------------------------------------------
  1 -0.1373E-01  0 -0.1236E-01  0 -0.1110E-01  0 -0.9441E-02  0 -0.7541E-02
   (  3, 17, 17)  (  3, 17, 17)  (  3, 17, 17)  (  3, 17, 17)  (  3, 17, 17)
  0 -0.5670E-02  0 -0.3797E-02  0 -0.2272E-02  0 -0.1320E-02  0 -0.8249E-03
   (  3, 17, 17)  (  3, 17, 17)  (  3, 17, 17)  (  3, 20, 11)  (  3, 20, 11)
  0 -0.5756E-03  0 -0.4906E-03  0 -0.4504E-03  0 -0.3612E-03  0 -0.2836E-03
   (  4, 16, 17)  (  4, 16, 17)  (  4, 16, 17)  (  4, 16, 17)  (  4, 16, 17)
  0 -0.2081E-03  0 -0.1855E-03  0 -0.1433E-03  0 -0.1026E-03  0 -0.7008E-04
   (  4, 16, 17)  (  4, 16, 17)  (  4, 16, 17)  (  4, 16, 17)  (  4, 16, 17)
  0 -0.5587E-04  0 -0.4735E-04  0 -0.3981E-04  0  0.2959E-04  0  0.1912E-04
   (  4, 16, 17)  (  4, 16, 17)  (  4, 16, 17)  (  3, 21,  6)  (  3, 21,  6)
  0  0.1182E-04  0  0.6357E-05  0  0.4260E-05  0  0.2824E-05  0  0.2072E-05
   (  3, 21,  6)  (  3, 21,  6)  (  3, 21,  6)  (  3, 21,  6)  (  3, 21,  5)
  1  0.7617E-05  0 -0.4675E-05  0 -0.4421E-05  0 -0.3774E-05  0 -0.3248E-05
   (  2, 17, 17)  (  3, 17, 17)  (  3, 17, 17)  (  3, 17, 17)  (  3, 17, 17)
  0 -0.2719E-05  0 -0.2217E-05  0 -0.1754E-05  0 -0.1370E-05  0 -0.1072E-05
   (  3, 17, 17)  (  3, 17, 17)  (  3, 17, 17)  (  3, 17, 17)  (  3, 17, 17)
  0 -0.9394E-06  0 -0.8149E-06  0 -0.5891E-06  0 -0.3860E-06  0 -0.2709E-06
   (  3, 17, 17)  (  3, 17, 17)  (  3, 17, 17)  (  3, 17, 17)  (  3, 17, 17)
  0 -0.2227E-06  0 -0.2011E-06  0 -0.1395E-06  0 -0.9420E-07  0 -0.7388E-07
   (  4, 18, 14)  (  4, 18, 14)  (  4, 18, 14)  (  3, 17, 17)  (  3, 17, 17)
  0 -0.6779E-07  0 -0.5037E-07  0 -0.3814E-07  0 -0.3372E-07  0 -0.2398E-07
   (  3, 17, 17)  (  3, 17, 17)  (  3, 17, 17)  (  3, 17, 17)  (  3, 17, 17)
  0 -0.1484E-07  0 -0.1006E-07  0 -0.9154E-08  1  0.2703E-07  0  0.2314E-07
   (  3, 17, 17)  (  3, 17, 17)  (  3, 17, 17)  (  3, 18, 15)  (  5,  7,  1)
  0  0.1895E-07  0  0.1443E-07  0  0.1156E-07  0  0.8471E-08  0  0.6203E-08
   (  3, 19, 14)  (  3, 19, 14)  (  3, 19, 14)  (  3, 19, 14)  (  3, 19, 14)
  0  0.4139E-08  0  0.3425E-08  1  0.3050E-08
   (  3, 19, 14)  (  3, 21,  4)  (  3, 21,  4)



 OUTPUT CONTROL FOR STRESS PERIOD   78   TIME STEP    2
    SAVE HEAD FOR ALL LAYERS
    SAVE DRAWDOWN FOR ALL LAYERS
    SAVE BUDGET
    PRINT BUDGET
 UBDSV1 SAVING "         STORAGE" ON UNIT   9 AT TIME STEP  2, STRESS PERIOD  78
 UBDSV2 SAVING "   CONSTANT HEAD" ON UNIT   9 AT TIME STEP  2, STRESS PERIOD  78
 UBDSV1 SAVING "FLOW RIGHT FACE " ON UNIT   9 AT TIME STEP  2, STRESS PERIOD  78
 UBDSV1 SAVING "FLOW FRONT FACE " ON UNIT   9 AT TIME STEP  2, STRESS PERIOD  78
 UBDSV1 SAVING "FLOW LOWER FACE " ON UNIT   9 AT TIME STEP  2, STRESS PERIOD  78
 UBDSV3 SAVING "        RECHARGE" ON UNIT   9 AT TIME STEP  2, STRESS PERIOD  78

 HEAD WILL BE SAVED ON UNIT   37 AT END OF TIME STEP    2, STRESS PERIOD   78

 DRAWDOWN WILL BE SAVED ON UNIT   38 AT END OF TIME STEP    2, STRESS PERIOD   78
1
  VOLUMETRIC BUDGET FOR ENTIRE MODEL AT END OF TIME STEP    2, STRESS PERIOD  78
  ------------------------------------------------------------------------------

     CUMULATIVE VOLUMES      L**3       RATES FOR THIS TIME STEP      L**3/T
     ------------------                 ------------------------

           IN:                                      IN:
           ---                                      ---
             STORAGE =       10585.2627               STORAGE =           0.0000
       CONSTANT HEAD =       20752.7949         CONSTANT HEAD =       6.7327E-03
            RECHARGE =         878.9106              RECHARGE =       9.7813E-05

            TOTAL IN =       32216.9688              TOTAL IN =       6.8305E-03

          OUT:                                     OUT:
          ----                                     ----
             STORAGE =        8157.4727               STORAGE =       6.8306E-03
       CONSTANT HEAD =       24060.3359         CONSTANT HEAD =           0.0000
            RECHARGE =           0.0000              RECHARGE =           0.0000

           TOTAL OUT =       32217.8086             TOTAL OUT =       6.8306E-03

            IN - OUT =          -0.8398              IN - OUT =      -6.1467E-08

 PERCENT DISCREPANCY =          -0.00     PERCENT DISCREPANCY =          -0.00






         TIME SUMMARY AT END OF TIME STEP    2 IN STRESS PERIOD   78
                    SECONDS     MINUTES      HOURS       DAYS        YEARS
                    -----------------------------------------------------------
   TIME STEP LENGTH  86400.      1440.0      24.000      1.0000     2.73785E-03
 STRESS PERIOD TIME 1.72800E+05  2880.0      48.000      2.0000     5.47570E-03
         TOTAL TIME 8.98560E+06 1.49760E+05  2496.0      104.00     0.28474    
1

 SOLVING FOR HEAD 
     4 CALLS TO PCG ROUTINE FOR TIME STEP   3 IN STRESS PERIOD   78
    67 TOTAL ITERATIONS

 MAXIMUM HEAD CHANGE FOR EACH ITERATION (1 INDICATES THE FIRST INNER ITERATION):

    HEAD CHANGE    HEAD CHANGE    HEAD CHANGE    HEAD CHANGE    HEAD CHANGE 
   LAYER,ROW,COL  LAYER,ROW,COL  LAYER,ROW,COL  LAYER,ROW,COL  LAYER,ROW,COL
 ---------------------------------------------------------------------------
  1  0.5080      0 -0.3313      0  0.2934      0  0.2301      0  0.3050    
   (  5, 21,  2)  (  5, 17,  1)  (  5, 16,  2)  (  5, 17,  1)  (  5, 19,  1)
  0  0.1834      0 -0.1586      0 -0.1156      0  0.1067      0 -0.6077E-01
   (  5, 20,  1)  (  5, 18,  1)  (  5, 19,  1)  (  5, 18,  1)  (  5, 18,  4)
  0  0.4486E-01  0  0.3138E-01  0 -0.3710E-01  0  0.2194E-01  0  0.1466E-01
   (  5, 17,  3)  (  5, 17,  2)  (  5, 16,  3)  (  5, 12,  5)  (  5, 19,  3)
  0 -0.1478E-01  0  0.8854E-02  0 -0.7769E-02  0 -0.8553E-02  0 -0.3134E-02
   (  5, 18,  2)  (  5, 18,  1)  (  5, 16,  1)  (  5, 19,  3)  (  5, 17,  2)
  0  0.3145E-02  0 -0.2132E-02  0  0.1810E-02  0  0.1313E-02  0  0.1060E-02
   (  5, 17,  1)  (  5, 15,  1)  (  5, 16,  2)  (  5, 19,  2)  (  5, 18,  5)
  0  0.6817E-03  0  0.5809E-03  0  0.3245E-03  0  0.3418E-03  0 -0.1926E-03
   (  5, 20,  3)  (  5, 14,  2)  (  5, 19,  1)  (  5,  6,  1)  (  5,  6,  1)
  1  0.1291E-02  0 -0.1583E-02  0  0.9046E-03  0 -0.7021E-03  0  0.5248E-03
   (  5, 15,  1)  (  2, 19, 14)  (  5, 11,  1)  (  5, 13,  2)  (  5, 15,  4)
  0  0.5393E-03  0 -0.3949E-03  0  0.2427E-03  0 -0.1759E-03  0 -0.9220E-04
   (  5, 19,  1)  (  5, 19,  1)  (  5, 20,  1)  (  5, 20,  1)  (  5, 18,  3)
  0 -0.9420E-04  0  0.8779E-04  0 -0.7733E-04  0 -0.5082E-04  0  0.4928E-04
   (  5, 16,  1)  (  5, 17,  3)  (  5, 16,  3)  (  5, 19,  4)  (  5, 19,  3)
  0 -0.2905E-04  0 -0.1898E-04  0 -0.1846E-04  0  0.1355E-04  0 -0.1085E-04
   (  5, 17,  3)  (  5, 15,  6)  (  5, 18,  1)  (  5, 19,  2)  (  5, 17,  2)
  0  0.8998E-05  0  0.5627E-05  0 -0.4089E-05  0 -0.2530E-05  0  0.3644E-05
   (  5, 16,  1)  (  5, 13,  5)  (  5, 19,  4)  (  5, 19,  1)  (  5, 19,  1)
  0 -0.1959E-05  0  0.1415E-05  0  0.9111E-06  1 -0.6482E-05  0  0.1512E-04
   (  5, 17,  5)  (  5, 18,  5)  (  5, 15,  1)  (  5, 15,  1)  (  2, 19, 14)
  0  0.5770E-05  0  0.3638E-05  0 -0.2369E-05  0  0.2159E-05  0  0.2168E-05
   (  5, 17,  5)  (  5, 12,  1)  (  5, 14,  4)  (  5, 15,  3)  (  5, 19,  1)
  0 -0.9109E-06  1  0.7602E-06
   (  5, 15,  3)  (  5, 20,  2)

 MAXIMUM RESIDUAL FOR EACH ITERATION (1 INDICATES THE FIRST INNER ITERATION):

    RESIDUAL       RESIDUAL       RESIDUAL       RESIDUAL       RESIDUAL    
   LAYER,ROW,COL  LAYER,ROW,COL  LAYER,ROW,COL  LAYER,ROW,COL  LAYER,ROW,COL
 ---------------------------------------------------------------------------
  1 -0.1373E-01  0 -0.1235E-01  0 -0.1109E-01  0 -0.9442E-02  0 -0.7563E-02
   (  3, 17, 17)  (  3, 17, 17)  (  3, 17, 17)  (  3, 17, 17)  (  3, 17, 17)
  0 -0.5703E-02  0 -0.3825E-02  0 -0.2283E-02  0 -0.1314E-02  0 -0.8183E-03
   (  3, 17, 17)  (  3, 17, 17)  (  3, 17, 17)  (  3, 20, 11)  (  3, 20, 11)
  0 -0.5702E-03  0 -0.5145E-03  0 -0.4472E-03  0 -0.3593E-03  0 -0.2827E-03
   (  4, 16, 17)  (  4, 16, 17)  (  4, 16, 17)  (  4, 16, 17)  (  4, 16, 17)
  0 -0.2242E-03  0 -0.1944E-03  0 -0.1438E-03  0 -0.1029E-03  0 -0.7009E-04
   (  4, 16, 17)  (  4, 16, 17)  (  4, 16, 17)  (  4, 16, 17)  (  4, 16, 17)
  0 -0.5234E-04  0 -0.4624E-04  0  0.3472E-04  0  0.2961E-04  0  0.1931E-04
   (  4, 16, 17)  (  4, 16, 17)  (  3, 21,  6)  (  3, 21,  6)  (  3, 21,  6)
  0  0.1195E-04  0  0.6930E-05  0  0.5889E-05  0  0.2859E-05  0  0.1816E-05
   (  3, 21,  6)  (  3, 21,  6)  (  3, 21,  6)  (  3, 21,  6)  (  3, 21,  5)
  1  0.8474E-05  0  0.6163E-05  0 -0.4513E-05  0 -0.4074E-05  0 -0.3725E-05
   (  2, 17, 17)  (  5,  7,  1)  (  3, 17, 17)  (  3, 17, 17)  (  3, 17, 17)
  0 -0.3190E-05  0 -0.2642E-05  0 -0.2079E-05  0 -0.1687E-05  0 -0.1350E-05
   (  3, 17, 17)  (  3, 17, 17)  (  3, 17, 17)  (  3, 17, 17)  (  3, 17, 17)
  0 -0.1202E-05  0 -0.1025E-05  0 -0.7142E-06  0 -0.4679E-06  0 -0.3273E-06
   (  3, 17, 17)  (  3, 17, 17)  (  3, 17, 17)  (  3, 17, 17)  (  3, 17, 17)
  0 -0.2303E-06  0 -0.1693E-06  0 -0.1490E-06  0 -0.1230E-06  0 -0.1030E-06
   (  4, 18, 14)  (  3, 17, 17)  (  3, 17, 17)  (  3, 17, 17)  (  3, 17, 17)
  0 -0.9076E-07  0 -0.7008E-07  0 -0.5319E-07  0 -0.4685E-07  0 -0.3534E-07
   (  3, 17, 17)  (  3, 17, 17)  (  3, 17, 17)  (  3, 17, 17)  (  3, 17, 17)
  0 -0.2463E-07  0 -0.1569E-07  0 -0.1314E-07  1 -0.3640E-07  0  0.2376E-07
   (  3, 17, 17)  (  3, 17, 17)  (  3, 17, 17)  (  2, 18, 15)  (  3, 19, 14)
  0  0.1932E-07  0  0.1527E-07  0  0.1228E-07  0  0.9902E-08  0  0.7545E-08
   (  3, 19, 14)  (  3, 19, 14)  (  3, 19, 14)  (  3, 19, 14)  (  3, 19, 14)
  0  0.5157E-08  1  0.4465E-08
   (  3, 19, 14)  (  3, 19, 14)



 OUTPUT CONTROL FOR STRESS PERIOD   78   TIME STEP    3
    SAVE HEAD FOR ALL LAYERS
    SAVE DRAWDOWN FOR ALL LAYERS
    SAVE BUDGET
    PRINT BUDGET
 UBDSV1 SAVING "         STORAGE" ON UNIT   9 AT TIME STEP  3, STRESS PERIOD  78
 UBDSV2 SAVING "   CONSTANT HEAD" ON UNIT   9 AT TIME STEP  3, STRESS PERIOD  78
 UBDSV1 SAVING "FLOW RIGHT FACE " ON UNIT   9 AT TIME STEP  3, STRESS PERIOD  78
 UBDSV1 SAVING "FLOW FRONT FACE " ON UNIT   9 AT TIME STEP  3, STRESS PERIOD  78
 UBDSV1 SAVING "FLOW LOWER FACE " ON UNIT   9 AT TIME STEP  3, STRESS PERIOD  78
 UBDSV3 SAVING "        RECHARGE" ON UNIT   9 AT TIME STEP  3, STRESS PERIOD  78

 HEAD WILL BE SAVED ON UNIT   37 AT END OF TIME STEP    3, STRESS PERIOD   78

 DRAWDOWN WILL BE SAVED ON UNIT   38 AT END OF TIME STEP    3, STRESS PERIOD   78
1
  VOLUMETRIC BUDGET FOR ENTIRE MODEL AT END OF TIME STEP    3, STRESS PERIOD  78
  ------------------------------------------------------------------------------

     CUMULATIVE VOLUMES      L**3       RATES FOR THIS TIME STEP      L**3/T
     ------------------                 ------------------------

           IN:                                      IN:
           ---                                      ---
             STORAGE =       10585.2627               STORAGE =           0.0000
       CONSTANT HEAD =       21377.5938         CONSTANT HEAD =       7.2315E-03
            RECHARGE =         887.3617              RECHARGE =       9.7813E-05

            TOTAL IN =       32850.2188              TOTAL IN =       7.3293E-03

          OUT:                                     OUT:
          ----                                     ----
             STORAGE =        8790.7295               STORAGE =       7.3294E-03
       CONSTANT HEAD =       24060.3359         CONSTANT HEAD =           0.0000
            RECHARGE =           0.0000              RECHARGE =           0.0000

           TOTAL OUT =       32851.0664             TOTAL OUT =       7.3294E-03

            IN - OUT =          -0.8477              IN - OUT =      -7.9628E-08

 PERCENT DISCREPANCY =          -0.00     PERCENT DISCREPANCY =          -0.00






         TIME SUMMARY AT END OF TIME STEP    3 IN STRESS PERIOD   78
                    SECONDS     MINUTES      HOURS       DAYS        YEARS
                    -----------------------------------------------------------
   TIME STEP LENGTH  86400.      1440.0      24.000      1.0000     2.73785E-03
 STRESS PERIOD TIME 2.59200E+05  4320.0      72.000      3.0000     8.21355E-03
         TOTAL TIME 9.07200E+06 1.51200E+05  2520.0      105.00     0.28747    
1
1
                            STRESS PERIOD NO.   79, LENGTH =   86400.00    
                            -----------------------------------------------

                              NUMBER OF TIME STEPS =     1

                               MULTIPLIER FOR DELT =     1.000

                            INITIAL TIME STEP SIZE =   86400.00    

 REUSING RECH FROM LAST STRESS PERIOD

 CHD NO.   LAYER   ROW   COL    START HEAD        END HEAD         IFACE           
 ----------------------------------------------------------------------------------
      1      4      1      1       110.2           110.3           0.000    
      2      5      1      1       110.2           110.3           0.000    
      3      4      1      2       110.2           110.3           0.000    
      4      5      1      2       110.2           110.3           0.000    
      5      4      1      3       110.2           110.3           0.000    
      6      5      1      3       110.2           110.3           0.000    
      7      4      1      4       110.2           110.3           0.000    
      8      5      1      4       110.2           110.3           0.000    
      9      4      1      5       110.2           110.3           0.000    
     10      5      1      5       110.2           110.3           0.000    
     11      4      1      6       110.2           110.3           0.000    
     12      5      1      6       110.2           110.3           0.000    
     13      4      1      7       110.2           110.3           0.000    
     14      5      1      7       110.2           110.3           0.000    
     15      4      1      8       110.2           110.3           0.000    
     16      5      1      8       110.2           110.3           0.000    
     17      4      1      9       110.2           110.3           0.000    
     18      5      1      9       110.2           110.3           0.000    
     19      4      1     10       110.2           110.3           0.000    
     20      5      1     10       110.2           110.3           0.000    
     21      4      1     11       110.2           110.3           0.000    
     22      5      1     11       110.2           110.3           0.000    
     23      4      1     12       110.2           110.3           0.000    
     24      5      1     12       110.2           110.3           0.000    
     25      4      1     13       110.2           110.3           0.000    
     26      5      1     13       110.2           110.3           0.000    
     27      4      1     14       110.2           110.3           0.000    
     28      5      1     14       110.2           110.3           0.000    
     29      4      1     15       110.2           110.3           0.000    
     30      5      1     15       110.2           110.3           0.000    
     31      4      1     16       110.2           110.3           0.000    
     32      5      1     16       110.2           110.3           0.000    
     33      4      1     17       110.2           110.3           0.000    
     34      5      1     17       110.2           110.3           0.000    
     35      4     17     17       110.5           110.6           0.000    
     36      5     17     17       110.5           110.6           0.000    
     37      4     18     17       110.5           110.6           0.000    
     38      5     18     17       110.5           110.6           0.000    
     39      4     18     16       110.5           110.6           0.000    
     40      5     18     16       110.5           110.6           0.000    
     41      4     19     16       110.5           110.6           0.000    
     42      5     19     16       110.5           110.6           0.000    
     43      4     19     15       110.4           110.6           0.000    
     44      5     19     15       110.4           110.6           0.000    
     45      4     20     15       110.4           110.6           0.000    
     46      5     20     15       110.4           110.6           0.000    
     47      4     20     14       110.4           110.6           0.000    
     48      5     20     14       110.4           110.6           0.000    
     49      4     20     13       110.4           110.6           0.000    
     50      5     20     13       110.4           110.6           0.000    
     51      4     20     12       110.4           110.6           0.000    
     52      5     20     12       110.4           110.6           0.000    
     53      4     20     11       110.4           110.6           0.000    
     54      5     20     11       110.4           110.6           0.000    
     55      4     21     11       110.4           110.6           0.000    
     56      5     21     11       110.4           110.6           0.000    
     57      4     21     10       110.4           110.6           0.000    
     58      5     21     10       110.4           110.6           0.000    
     59      4     21      9       110.4           110.6           0.000    
     60      5     21      9       110.4           110.6           0.000    
     61      4     21      8       110.4           110.6           0.000    
     62      5     21      8       110.4           110.6           0.000    
     63      4     21      7       110.4           110.6           0.000    
     64      5     21      7       110.4           110.6           0.000    
     65      4     21      6       110.4           110.5           0.000    
     66      5     21      6       110.4           110.5           0.000    
     67      4     21      5       110.4           110.5           0.000    
     68      5     21      5       110.4           110.5           0.000    
     69      4     22      5       110.4           110.5           0.000    
     70      5     22      5       110.4           110.5           0.000    
     71      4     22      4       110.4           110.5           0.000    
     72      5     22      4       110.4           110.5           0.000    
     73      4     22      3       110.4           110.5           0.000    
     74      5     22      3       110.4           110.5           0.000    
     75      4     22      2       110.4           110.5           0.000    
     76      5     22      2       110.4           110.5           0.000    
     77      4     22      1       110.4           110.5           0.000    
     78      5     22      1       110.4           110.5           0.000    


     78 TIME-VARIANT SPECIFIED-HEAD CELLS

 SOLVING FOR HEAD 


     4 CALLS TO PCG ROUTINE FOR TIME STEP   1 IN STRESS PERIOD   79
    63 TOTAL ITERATIONS

 MAXIMUM HEAD CHANGE FOR EACH ITERATION (1 INDICATES THE FIRST INNER ITERATION):

    HEAD CHANGE    HEAD CHANGE    HEAD CHANGE    HEAD CHANGE    HEAD CHANGE 
   LAYER,ROW,COL  LAYER,ROW,COL  LAYER,ROW,COL  LAYER,ROW,COL  LAYER,ROW,COL
 ---------------------------------------------------------------------------
  1  0.2889      0 -0.1847      0  0.1635      0  0.1274      0  0.1632    
   (  5, 21,  2)  (  5, 17,  1)  (  5, 16,  2)  (  5, 17,  1)  (  5, 19,  1)
  0  0.1014      0 -0.8735E-01  0  0.6488E-01  0  0.6104E-01  0  0.3464E-01
   (  5, 20,  1)  (  5, 18,  1)  (  5, 17,  1)  (  5, 18,  1)  (  5, 19,  1)
  0  0.2907E-01  0 -0.2376E-01  0  0.1502E-01  0  0.1177E-01  0  0.7992E-02
   (  5, 17,  3)  (  5, 16,  3)  (  5, 15,  1)  (  5, 12,  5)  (  5, 19,  3)
  0 -0.8163E-02  0  0.4022E-02  0 -0.4493E-02  0 -0.4722E-02  0 -0.1819E-02
   (  5, 18,  2)  (  5, 18,  1)  (  5, 16,  1)  (  5, 19,  3)  (  5, 17,  2)
  0  0.1756E-02  0 -0.1111E-02  0  0.1079E-02  0  0.8987E-03  0  0.6151E-03
   (  5, 17,  1)  (  5, 15,  1)  (  5, 16,  2)  (  5, 19,  2)  (  5, 18,  5)
  0  0.3542E-03  0  0.2964E-03  0  0.1548E-03  0 -0.1938E-03  0 -0.1073E-03
   (  5, 20,  3)  (  5, 14,  2)  (  5, 19,  1)  (  5, 18,  1)  (  5, 15,  1)
  1  0.4536E-03  0 -0.6678E-03  0  0.5496E-03  0 -0.3346E-03  0  0.2491E-03
   (  5, 15,  1)  (  2, 19, 14)  (  5, 11,  2)  (  5, 13,  2)  (  5, 16,  4)
  0  0.2295E-03  0 -0.1766E-03  0  0.1180E-03  0 -0.8157E-04  0 -0.4679E-04
   (  5, 19,  1)  (  5, 20,  1)  (  5, 20,  1)  (  5, 20,  1)  (  5, 19,  3)
  0  0.4173E-04  0 -0.3832E-04  0  0.2694E-04  0 -0.2455E-04  0  0.2096E-04
   (  5, 17,  4)  (  5, 16,  1)  (  5, 14,  1)  (  5, 19,  4)  (  5, 19,  3)
  0 -0.1236E-04  0  0.8555E-05  0 -0.7698E-05  0  0.7033E-05  0  0.3349E-05
   (  5, 17,  3)  (  5, 18,  1)  (  5, 19,  2)  (  5, 20,  3)  (  5, 15,  5)
  0  0.2559E-05  0 -0.2629E-05  0  0.2267E-05  0 -0.1597E-05  0  0.1522E-05
   (  5, 15,  2)  (  5, 17,  2)  (  5, 20,  2)  (  5, 19,  1)  (  5, 19,  1)
  0 -0.8448E-06  1  0.2671E-05  0  0.2203E-05  0 -0.2019E-05  0  0.1286E-05
   (  5, 17,  5)  (  2, 19, 14)  (  5, 16,  2)  (  5, 16,  1)  (  5, 12,  2)
  0 -0.1071E-05  0 -0.8211E-06  1  0.6965E-06
   (  5, 15,  4)  (  5, 20,  2)  (  5, 20,  2)

 MAXIMUM RESIDUAL FOR EACH ITERATION (1 INDICATES THE FIRST INNER ITERATION):

    RESIDUAL       RESIDUAL       RESIDUAL       RESIDUAL       RESIDUAL    
   LAYER,ROW,COL  LAYER,ROW,COL  LAYER,ROW,COL  LAYER,ROW,COL  LAYER,ROW,COL
 ---------------------------------------------------------------------------
  1 -0.7332E-02  0 -0.6609E-02  0 -0.5949E-02  0 -0.5119E-02  0 -0.4166E-02
   (  3, 17, 17)  (  3, 17, 17)  (  3, 17, 17)  (  3, 17, 17)  (  3, 17, 17)
  0 -0.3190E-02  0 -0.2157E-02  0 -0.1278E-02  0 -0.7233E-03  0 -0.4503E-03
   (  3, 17, 17)  (  3, 17, 17)  (  3, 17, 17)  (  3, 20, 11)  (  3, 20, 11)
  0  0.2997E-03  0  0.2549E-03  0 -0.2318E-03  0 -0.1878E-03  0 -0.1494E-03
   (  4, 21,  2)  (  4, 21,  2)  (  4, 16, 17)  (  4, 16, 17)  (  4, 16, 17)
  0 -0.1143E-03  0 -0.1037E-03  0 -0.7848E-04  0 -0.5668E-04  0 -0.3835E-04
   (  4, 16, 17)  (  4, 16, 17)  (  4, 16, 17)  (  4, 16, 17)  (  4, 16, 17)
  0 -0.2795E-04  0 -0.2501E-04  0  0.2017E-04  0  0.1641E-04  0  0.1072E-04
   (  4, 16, 17)  (  4, 16, 17)  (  3, 21,  6)  (  3, 21,  6)  (  3, 21,  6)
  0  0.6665E-05  0  0.3753E-05  0  0.3284E-05  0  0.1667E-05  0  0.1161E-05
   (  3, 21,  6)  (  3, 21,  6)  (  3, 21,  6)  (  3, 21,  6)  (  3, 21,  6)
  1  0.3760E-05  0  0.2690E-05  0 -0.1867E-05  0 -0.1725E-05  0 -0.1564E-05
   (  2, 17, 17)  (  5,  7,  1)  (  3, 17, 17)  (  3, 17, 17)  (  3, 17, 17)
  0 -0.1397E-05  0 -0.1182E-05  0 -0.9645E-06  0 -0.7774E-06  0 -0.6401E-06
   (  3, 17, 17)  (  3, 17, 17)  (  3, 17, 17)  (  3, 17, 17)  (  3, 17, 17)
  0 -0.5245E-06  0 -0.4216E-06  0 -0.3693E-06  0 -0.2544E-06  0 -0.1838E-06
   (  3, 17, 17)  (  3, 17, 17)  (  3, 17, 17)  (  3, 17, 17)  (  3, 17, 17)
  0 -0.1262E-06  0 -0.9925E-07  0 -0.8805E-07  0 -0.6989E-07  0 -0.5425E-07
   (  3, 17, 17)  (  3, 17, 17)  (  3, 17, 17)  (  3, 17, 17)  (  3, 17, 17)
  0 -0.4894E-07  0 -0.4104E-07  0 -0.3216E-07  0 -0.2813E-07  0 -0.2057E-07
   (  3, 17, 17)  (  3, 17, 17)  (  3, 17, 17)  (  3, 17, 17)  (  3, 17, 17)
  0 -0.1466E-07  1  0.8780E-08  0  0.7063E-08  0  0.6411E-08  0  0.5790E-08
   (  3, 17, 17)  (  3, 18, 15)  (  3, 18, 15)  (  3, 19, 14)  (  3, 19, 14)
  0  0.4893E-08  0  0.4051E-08  1  0.3787E-08
   (  3, 19, 14)  (  3, 19, 14)  (  3, 19, 14)



 OUTPUT CONTROL FOR STRESS PERIOD   79   TIME STEP    1
    SAVE HEAD FOR ALL LAYERS
    SAVE DRAWDOWN FOR ALL LAYERS
    SAVE BUDGET
    PRINT BUDGET
 UBDSV1 SAVING "         STORAGE" ON UNIT   9 AT TIME STEP  1, STRESS PERIOD  79
 UBDSV2 SAVING "   CONSTANT HEAD" ON UNIT   9 AT TIME STEP  1, STRESS PERIOD  79
 UBDSV1 SAVING "FLOW RIGHT FACE " ON UNIT   9 AT TIME STEP  1, STRESS PERIOD  79
 UBDSV1 SAVING "FLOW FRONT FACE " ON UNIT   9 AT TIME STEP  1, STRESS PERIOD  79
 UBDSV1 SAVING "FLOW LOWER FACE " ON UNIT   9 AT TIME STEP  1, STRESS PERIOD  79
 UBDSV3 SAVING "        RECHARGE" ON UNIT   9 AT TIME STEP  1, STRESS PERIOD  79

 HEAD WILL BE SAVED ON UNIT   37 AT END OF TIME STEP    1, STRESS PERIOD   79

 DRAWDOWN WILL BE SAVED ON UNIT   38 AT END OF TIME STEP    1, STRESS PERIOD   79
1
  VOLUMETRIC BUDGET FOR ENTIRE MODEL AT END OF TIME STEP    1, STRESS PERIOD  79
  ------------------------------------------------------------------------------

     CUMULATIVE VOLUMES      L**3       RATES FOR THIS TIME STEP      L**3/T
     ------------------                 ------------------------

           IN:                                      IN:
           ---                                      ---
             STORAGE =       10585.2627               STORAGE =           0.0000
       CONSTANT HEAD =       21868.8164         CONSTANT HEAD =       5.6854E-03
            RECHARGE =         895.8127              RECHARGE =       9.7813E-05

            TOTAL IN =       33349.8906              TOTAL IN =       5.7833E-03

          OUT:                                     OUT:
          ----                                     ----
             STORAGE =        9210.3184               STORAGE =       4.8563E-03
       CONSTANT HEAD =       24140.4277         CONSTANT HEAD =       9.2698E-04
            RECHARGE =           0.0000              RECHARGE =           0.0000

           TOTAL OUT =       33350.7461             TOTAL OUT =       5.7833E-03

            IN - OUT =          -0.8555              IN - OUT =      -7.2643E-08

 PERCENT DISCREPANCY =          -0.00     PERCENT DISCREPANCY =          -0.00






         TIME SUMMARY AT END OF TIME STEP    1 IN STRESS PERIOD   79
                    SECONDS     MINUTES      HOURS       DAYS        YEARS
                    -----------------------------------------------------------
   TIME STEP LENGTH  86400.      1440.0      24.000      1.0000     2.73785E-03
 STRESS PERIOD TIME  86400.      1440.0      24.000      1.0000     2.73785E-03
         TOTAL TIME 9.15840E+06 1.52640E+05  2544.0      106.00     0.29021    
1
1
                            STRESS PERIOD NO.   80, LENGTH =   86400.00    
                            -----------------------------------------------

                              NUMBER OF TIME STEPS =     1

                               MULTIPLIER FOR DELT =     1.000

                            INITIAL TIME STEP SIZE =   86400.00    

 REUSING RECH FROM LAST STRESS PERIOD

 CHD NO.   LAYER   ROW   COL    START HEAD        END HEAD         IFACE           
 ----------------------------------------------------------------------------------
      1      4      1      1       110.3           110.4           0.000    
      2      5      1      1       110.3           110.4           0.000    
      3      4      1      2       110.3           110.4           0.000    
      4      5      1      2       110.3           110.4           0.000    
      5      4      1      3       110.3           110.4           0.000    
      6      5      1      3       110.3           110.4           0.000    
      7      4      1      4       110.3           110.4           0.000    
      8      5      1      4       110.3           110.4           0.000    
      9      4      1      5       110.3           110.4           0.000    
     10      5      1      5       110.3           110.4           0.000    
     11      4      1      6       110.3           110.4           0.000    
     12      5      1      6       110.3           110.4           0.000    
     13      4      1      7       110.3           110.4           0.000    
     14      5      1      7       110.3           110.4           0.000    
     15      4      1      8       110.3           110.4           0.000    
     16      5      1      8       110.3           110.4           0.000    
     17      4      1      9       110.3           110.4           0.000    
     18      5      1      9       110.3           110.4           0.000    
     19      4      1     10       110.3           110.4           0.000    
     20      5      1     10       110.3           110.4           0.000    
     21      4      1     11       110.3           110.4           0.000    
     22      5      1     11       110.3           110.4           0.000    
     23      4      1     12       110.3           110.4           0.000    
     24      5      1     12       110.3           110.4           0.000    
     25      4      1     13       110.3           110.4           0.000    
     26      5      1     13       110.3           110.4           0.000    
     27      4      1     14       110.3           110.4           0.000    
     28      5      1     14       110.3           110.4           0.000    
     29      4      1     15       110.3           110.4           0.000    
     30      5      1     15       110.3           110.4           0.000    
     31      4      1     16       110.3           110.4           0.000    
     32      5      1     16       110.3           110.4           0.000    
     33      4      1     17       110.3           110.4           0.000    
     34      5      1     17       110.3           110.4           0.000    
     35      4     17     17       110.6           110.7           0.000    
     36      5     17     17       110.6           110.7           0.000    
     37      4     18     17       110.6           110.7           0.000    
     38      5     18     17       110.6           110.7           0.000    
     39      4     18     16       110.6           110.7           0.000    
     40      5     18     16       110.6           110.7           0.000    
     41      4     19     16       110.6           110.7           0.000    
     42      5     19     16       110.6           110.7           0.000    
     43      4     19     15       110.6           110.7           0.000    
     44      5     19     15       110.6           110.7           0.000    
     45      4     20     15       110.6           110.7           0.000    
     46      5     20     15       110.6           110.7           0.000    
     47      4     20     14       110.6           110.7           0.000    
     48      5     20     14       110.6           110.7           0.000    
     49      4     20     13       110.6           110.7           0.000    
     50      5     20     13       110.6           110.7           0.000    
     51      4     20     12       110.6           110.7           0.000    
     52      5     20     12       110.6           110.7           0.000    
     53      4     20     11       110.6           110.7           0.000    
     54      5     20     11       110.6           110.7           0.000    
     55      4     21     11       110.6           110.7           0.000    
     56      5     21     11       110.6           110.7           0.000    
     57      4     21     10       110.6           110.7           0.000    
     58      5     21     10       110.6           110.7           0.000    
     59      4     21      9       110.6           110.7           0.000    
     60      5     21      9       110.6           110.7           0.000    
     61      4     21      8       110.6           110.7           0.000    
     62      5     21      8       110.6           110.7           0.000    
     63      4     21      7       110.6           110.7           0.000    
     64      5     21      7       110.6           110.7           0.000    
     65      4     21      6       110.5           110.7           0.000    
     66      5     21      6       110.5           110.7           0.000    
     67      4     21      5       110.5           110.7           0.000    
     68      5     21      5       110.5           110.7           0.000    
     69      4     22      5       110.5           110.7           0.000    
     70      5     22      5       110.5           110.7           0.000    
     71      4     22      4       110.5           110.7           0.000    
     72      5     22      4       110.5           110.7           0.000    
     73      4     22      3       110.5           110.7           0.000    
     74      5     22      3       110.5           110.7           0.000    
     75      4     22      2       110.5           110.7           0.000    
     76      5     22      2       110.5           110.7           0.000    
     77      4     22      1       110.5           110.7           0.000    
     78      5     22      1       110.5           110.7           0.000    


     78 TIME-VARIANT SPECIFIED-HEAD CELLS

 SOLVING FOR HEAD 


     4 CALLS TO PCG ROUTINE FOR TIME STEP   1 IN STRESS PERIOD   80
    61 TOTAL ITERATIONS

 MAXIMUM HEAD CHANGE FOR EACH ITERATION (1 INDICATES THE FIRST INNER ITERATION):

    HEAD CHANGE    HEAD CHANGE    HEAD CHANGE    HEAD CHANGE    HEAD CHANGE 
   LAYER,ROW,COL  LAYER,ROW,COL  LAYER,ROW,COL  LAYER,ROW,COL  LAYER,ROW,COL
 ---------------------------------------------------------------------------
  1  0.2841      0 -0.1854      0  0.1644      0  0.1284      0  0.1672    
   (  5, 21,  2)  (  5, 17,  1)  (  5, 16,  2)  (  5, 17,  1)  (  5, 19,  1)
  0  0.1011      0 -0.8706E-01  0 -0.6177E-01  0  0.5662E-01  0 -0.3218E-01
   (  5, 20,  1)  (  5, 18,  1)  (  5, 19,  1)  (  5, 18,  1)  (  5, 18,  4)
  0  0.2717E-01  0 -0.2251E-01  0  0.1403E-01  0  0.1160E-01  0  0.7798E-02
   (  5, 17,  3)  (  5, 16,  3)  (  5, 15,  1)  (  5, 12,  5)  (  5, 19,  3)
  0 -0.7799E-02  0  0.4269E-02  0 -0.4104E-02  0 -0.4551E-02  0 -0.1736E-02
   (  5, 18,  2)  (  5, 18,  1)  (  5, 16,  1)  (  5, 19,  3)  (  5, 17,  2)
  0  0.1837E-02  0 -0.1282E-02  0  0.1169E-02  0 -0.8092E-03  0  0.5119E-03
   (  5, 16,  1)  (  5, 15,  1)  (  5, 19,  2)  (  5, 19,  1)  (  5, 18,  1)
  0  0.3479E-03  0  0.3247E-03  0  0.2138E-03  0  0.1975E-03  0  0.1183E-03
   (  5, 20,  3)  (  5, 14,  2)  (  5, 18,  1)  (  5,  6,  1)  (  5, 15,  2)
  1 -0.3739E-03  0  0.5692E-03  0 -0.4309E-03  0 -0.3094E-03  0 -0.2526E-03
   (  5, 16,  1)  (  5, 18,  3)  (  5, 18,  3)  (  5, 13,  3)  (  5, 20,  1)
  0  0.1831E-03  0 -0.1537E-03  0  0.7129E-04  0 -0.6369E-04  0  0.3992E-04
   (  5, 19,  1)  (  5, 15,  4)  (  5, 16,  4)  (  5, 12,  4)  (  5, 16,  2)
  0 -0.4203E-04  0  0.3163E-04  0 -0.3525E-04  0  0.2413E-04  0  0.1905E-04
   (  5, 16,  1)  (  5, 14,  1)  (  5, 20,  1)  (  5, 20,  1)  (  5, 19,  3)
  0 -0.1018E-04  0 -0.1141E-04  0 -0.5330E-05  0 -0.6524E-05  0  0.2705E-05
   (  5, 17,  3)  (  5, 19,  3)  (  5, 15,  3)  (  5, 18,  1)  (  5, 15,  5)
  0 -0.1874E-05  0  0.2128E-05  0  0.2065E-05  0 -0.1760E-05  0  0.1468E-05
   (  5, 17,  2)  (  5, 15,  3)  (  5, 20,  2)  (  5, 19,  1)  (  5, 19,  1)
  0 -0.7732E-06  1 -0.1981E-05  0  0.1650E-05  0 -0.1491E-05  0  0.9506E-06
   (  5, 18,  5)  (  5, 16,  2)  (  2, 19, 14)  (  5, 16,  1)  (  5, 12,  2)
  1 -0.6971E-06
   (  5, 13,  3)

 MAXIMUM RESIDUAL FOR EACH ITERATION (1 INDICATES THE FIRST INNER ITERATION):

    RESIDUAL       RESIDUAL       RESIDUAL       RESIDUAL       RESIDUAL    
   LAYER,ROW,COL  LAYER,ROW,COL  LAYER,ROW,COL  LAYER,ROW,COL  LAYER,ROW,COL
 ---------------------------------------------------------------------------
  1 -0.6803E-02  0 -0.6066E-02  0 -0.5391E-02  0 -0.4534E-02  0 -0.3577E-02
   (  3, 17, 17)  (  3, 17, 17)  (  3, 17, 17)  (  3, 17, 17)  (  3, 17, 17)
  0 -0.2647E-02  0 -0.1733E-02  0 -0.1005E-02  0 -0.5597E-03  0 -0.3378E-03
   (  3, 17, 17)  (  3, 17, 17)  (  3, 17, 17)  (  3, 20, 11)  (  3, 20, 11)
  0  0.2896E-03  0  0.2407E-03  0 -0.2200E-03  0 -0.1762E-03  0 -0.1365E-03
   (  4, 21,  2)  (  4, 21,  2)  (  4, 16, 17)  (  4, 16, 17)  (  4, 16, 17)
  0 -0.1025E-03  0 -0.9090E-04  0 -0.6622E-04  0 -0.4623E-04  0  0.3215E-04
   (  4, 16, 17)  (  4, 16, 17)  (  4, 16, 17)  (  4, 16, 17)  (  3, 21,  6)
  0  0.2657E-04  0  0.2350E-04  0  0.1931E-04  0  0.1553E-04  0  0.1009E-04
   (  3, 21,  6)  (  3, 21,  6)  (  3, 21,  6)  (  3, 21,  6)  (  3, 21,  6)
  0  0.6206E-05  0  0.3801E-05  0  0.3020E-05  0  0.1375E-05  0 -0.1111E-05
   (  3, 21,  6)  (  3, 21,  6)  (  3, 21,  6)  (  3, 21,  6)  (  5, 15, 17)
  1  0.3275E-05  0  0.2246E-05  0 -0.1390E-05  0 -0.1285E-05  0 -0.1185E-05
   (  2, 17, 17)  (  5,  7,  1)  (  3, 17, 17)  (  3, 17, 17)  (  3, 17, 17)
  0 -0.1070E-05  0 -0.9259E-06  0 -0.7807E-06  0 -0.6304E-06  0 -0.5071E-06
   (  3, 17, 17)  (  3, 17, 17)  (  3, 17, 17)  (  3, 17, 17)  (  3, 17, 17)
  0 -0.4586E-06  0 -0.3920E-06  0 -0.3034E-06  0  0.2134E-06  0  0.1567E-06
   (  3, 17, 17)  (  3, 17, 17)  (  3, 17, 17)  (  2, 17, 17)  (  2, 17, 17)
  0  0.1040E-06  0 -0.8018E-07  0 -0.7287E-07  0 -0.5945E-07  0 -0.4735E-07
   (  2, 17, 17)  (  3, 17, 17)  (  3, 17, 17)  (  3, 17, 17)  (  3, 17, 17)
  0 -0.4537E-07  0 -0.3609E-07  0 -0.2983E-07  0 -0.2454E-07  0 -0.1744E-07
   (  3, 17, 17)  (  3, 17, 17)  (  3, 17, 17)  (  3, 17, 17)  (  3, 17, 17)
  0 -0.1224E-07  1 -0.7897E-08  0  0.5113E-08  0  0.4765E-08  0  0.4445E-08
   (  3, 17, 17)  (  3, 17, 17)  (  3, 18, 15)  (  3, 19, 14)  (  3, 19, 14)
  1  0.4183E-08
   (  3, 19, 14)



 OUTPUT CONTROL FOR STRESS PERIOD   80   TIME STEP    1
    SAVE HEAD FOR ALL LAYERS
    SAVE DRAWDOWN FOR ALL LAYERS
    SAVE BUDGET
    PRINT BUDGET
 UBDSV1 SAVING "         STORAGE" ON UNIT   9 AT TIME STEP  1, STRESS PERIOD  80
 UBDSV2 SAVING "   CONSTANT HEAD" ON UNIT   9 AT TIME STEP  1, STRESS PERIOD  80
 UBDSV1 SAVING "FLOW RIGHT FACE " ON UNIT   9 AT TIME STEP  1, STRESS PERIOD  80
 UBDSV1 SAVING "FLOW FRONT FACE " ON UNIT   9 AT TIME STEP  1, STRESS PERIOD  80
 UBDSV1 SAVING "FLOW LOWER FACE " ON UNIT   9 AT TIME STEP  1, STRESS PERIOD  80
 UBDSV3 SAVING "        RECHARGE" ON UNIT   9 AT TIME STEP  1, STRESS PERIOD  80

 HEAD WILL BE SAVED ON UNIT   37 AT END OF TIME STEP    1, STRESS PERIOD   80

 DRAWDOWN WILL BE SAVED ON UNIT   38 AT END OF TIME STEP    1, STRESS PERIOD   80
1
  VOLUMETRIC BUDGET FOR ENTIRE MODEL AT END OF TIME STEP    1, STRESS PERIOD  80
  ------------------------------------------------------------------------------

     CUMULATIVE VOLUMES      L**3       RATES FOR THIS TIME STEP      L**3/T
     ------------------                 ------------------------

           IN:                                      IN:
           ---                                      ---
             STORAGE =       10585.2627               STORAGE =           0.0000
       CONSTANT HEAD =       22332.7285         CONSTANT HEAD =       5.3694E-03
            RECHARGE =         904.2638              RECHARGE =       9.7813E-05

            TOTAL IN =       33822.2578              TOTAL IN =       5.4672E-03

          OUT:                                     OUT:
          ----                                     ----
             STORAGE =        9633.3613               STORAGE =       4.8963E-03
       CONSTANT HEAD =       24189.7539         CONSTANT HEAD =       5.7090E-04
            RECHARGE =           0.0000              RECHARGE =           0.0000

           TOTAL OUT =       33823.1172             TOTAL OUT =       5.4672E-03

            IN - OUT =          -0.8594              IN - OUT =      -6.9384E-08

 PERCENT DISCREPANCY =          -0.00     PERCENT DISCREPANCY =          -0.00






         TIME SUMMARY AT END OF TIME STEP    1 IN STRESS PERIOD   80
                    SECONDS     MINUTES      HOURS       DAYS        YEARS
                    -----------------------------------------------------------
   TIME STEP LENGTH  86400.      1440.0      24.000      1.0000     2.73785E-03
 STRESS PERIOD TIME  86400.      1440.0      24.000      1.0000     2.73785E-03
         TOTAL TIME 9.24480E+06 1.54080E+05  2568.0      107.00     0.29295    
1
1
                            STRESS PERIOD NO.   81, LENGTH =   86400.00    
                            -----------------------------------------------

                              NUMBER OF TIME STEPS =     1

                               MULTIPLIER FOR DELT =     1.000

                            INITIAL TIME STEP SIZE =   86400.00    

 REUSING RECH FROM LAST STRESS PERIOD

 CHD NO.   LAYER   ROW   COL    START HEAD        END HEAD         IFACE           
 ----------------------------------------------------------------------------------
      1      4      1      1       110.4           110.4           0.000    
      2      5      1      1       110.4           110.4           0.000    
      3      4      1      2       110.4           110.4           0.000    
      4      5      1      2       110.4           110.4           0.000    
      5      4      1      3       110.4           110.4           0.000    
      6      5      1      3       110.4           110.4           0.000    
      7      4      1      4       110.4           110.4           0.000    
      8      5      1      4       110.4           110.4           0.000    
      9      4      1      5       110.4           110.4           0.000    
     10      5      1      5       110.4           110.4           0.000    
     11      4      1      6       110.4           110.4           0.000    
     12      5      1      6       110.4           110.4           0.000    
     13      4      1      7       110.4           110.4           0.000    
     14      5      1      7       110.4           110.4           0.000    
     15      4      1      8       110.4           110.4           0.000    
     16      5      1      8       110.4           110.4           0.000    
     17      4      1      9       110.4           110.4           0.000    
     18      5      1      9       110.4           110.4           0.000    
     19      4      1     10       110.4           110.4           0.000    
     20      5      1     10       110.4           110.4           0.000    
     21      4      1     11       110.4           110.4           0.000    
     22      5      1     11       110.4           110.4           0.000    
     23      4      1     12       110.4           110.4           0.000    
     24      5      1     12       110.4           110.4           0.000    
     25      4      1     13       110.4           110.4           0.000    
     26      5      1     13       110.4           110.4           0.000    
     27      4      1     14       110.4           110.4           0.000    
     28      5      1     14       110.4           110.4           0.000    
     29      4      1     15       110.4           110.4           0.000    
     30      5      1     15       110.4           110.4           0.000    
     31      4      1     16       110.4           110.4           0.000    
     32      5      1     16       110.4           110.4           0.000    
     33      4      1     17       110.4           110.4           0.000    
     34      5      1     17       110.4           110.4           0.000    
     35      4     17     17       110.7           110.5           0.000    
     36      5     17     17       110.7           110.5           0.000    
     37      4     18     17       110.7           110.5           0.000    
     38      5     18     17       110.7           110.5           0.000    
     39      4     18     16       110.7           110.5           0.000    
     40      5     18     16       110.7           110.5           0.000    
     41      4     19     16       110.7           110.5           0.000    
     42      5     19     16       110.7           110.5           0.000    
     43      4     19     15       110.7           110.4           0.000    
     44      5     19     15       110.7           110.4           0.000    
     45      4     20     15       110.7           110.4           0.000    
     46      5     20     15       110.7           110.4           0.000    
     47      4     20     14       110.7           110.4           0.000    
     48      5     20     14       110.7           110.4           0.000    
     49      4     20     13       110.7           110.4           0.000    
     50      5     20     13       110.7           110.4           0.000    
     51      4     20     12       110.7           110.4           0.000    
     52      5     20     12       110.7           110.4           0.000    
     53      4     20     11       110.7           110.4           0.000    
     54      5     20     11       110.7           110.4           0.000    
     55      4     21     11       110.7           110.4           0.000    
     56      5     21     11       110.7           110.4           0.000    
     57      4     21     10       110.7           110.4           0.000    
     58      5     21     10       110.7           110.4           0.000    
     59      4     21      9       110.7           110.4           0.000    
     60      5     21      9       110.7           110.4           0.000    
     61      4     21      8       110.7           110.4           0.000    
     62      5     21      8       110.7           110.4           0.000    
     63      4     21      7       110.7           110.4           0.000    
     64      5     21      7       110.7           110.4           0.000    
     65      4     21      6       110.7           110.4           0.000    
     66      5     21      6       110.7           110.4           0.000    
     67      4     21      5       110.7           110.4           0.000    
     68      5     21      5       110.7           110.4           0.000    
     69      4     22      5       110.7           110.4           0.000    
     70      5     22      5       110.7           110.4           0.000    
     71      4     22      4       110.7           110.4           0.000    
     72      5     22      4       110.7           110.4           0.000    
     73      4     22      3       110.7           110.4           0.000    
     74      5     22      3       110.7           110.4           0.000    
     75      4     22      2       110.7           110.4           0.000    
     76      5     22      2       110.7           110.4           0.000    
     77      4     22      1       110.7           110.4           0.000    
     78      5     22      1       110.7           110.4           0.000    


     78 TIME-VARIANT SPECIFIED-HEAD CELLS

 SOLVING FOR HEAD 


     4 CALLS TO PCG ROUTINE FOR TIME STEP   1 IN STRESS PERIOD   81
    63 TOTAL ITERATIONS

 MAXIMUM HEAD CHANGE FOR EACH ITERATION (1 INDICATES THE FIRST INNER ITERATION):

    HEAD CHANGE    HEAD CHANGE    HEAD CHANGE    HEAD CHANGE    HEAD CHANGE 
   LAYER,ROW,COL  LAYER,ROW,COL  LAYER,ROW,COL  LAYER,ROW,COL  LAYER,ROW,COL
 ---------------------------------------------------------------------------
  1 -0.4629      0  0.3100      0 -0.2654      0 -0.2088      0 -0.2958    
   (  5, 21,  2)  (  5, 17,  1)  (  5, 16,  2)  (  5, 17,  1)  (  5, 19,  1)
  0 -0.1671      0  0.1526      0  0.1127      0 -0.9699E-01  0  0.5815E-01
   (  5, 20,  1)  (  5, 18,  1)  (  5, 19,  1)  (  5, 18,  1)  (  5, 18,  4)
  0 -0.4501E-01  0  0.3208E-01  0  0.1895E-01  0 -0.2041E-01  0  0.1669E-01
   (  5, 17,  3)  (  5, 13,  5)  (  5, 16,  2)  (  5, 15,  3)  (  5, 19,  1)
  0 -0.1067E-01  0  0.1364E-01  0  0.7195E-02  0  0.8580E-02  0  0.3019E-02
   (  5, 18,  1)  (  5, 18,  2)  (  5, 16,  1)  (  5, 19,  3)  (  5, 17,  2)
  0  0.2748E-02  0 -0.1609E-02  0  0.1818E-02  0  0.1502E-02  0 -0.8898E-03
   (  5, 20,  3)  (  5, 17,  1)  (  5, 15,  1)  (  5, 19,  1)  (  5, 18,  5)
  0 -0.7197E-03  0  0.5870E-03  0 -0.3899E-03  0 -0.3007E-03  0  0.2314E-03
   (  5, 20,  3)  (  5, 19,  2)  (  5, 18,  1)  (  5,  6,  1)  (  5,  6,  1)
  1  0.5170E-03  0 -0.5412E-03  0  0.5851E-03  0  0.5974E-03  0  0.2344E-03
   (  5, 17,  2)  (  5, 14,  1)  (  5, 19,  1)  (  5,  6,  1)  (  5, 13,  3)
  0  0.2334E-03  0 -0.1708E-03  0 -0.9531E-04  0  0.5219E-04  0 -0.5383E-04
   (  5, 18,  1)  (  5, 19,  1)  (  5, 17,  4)  (  5, 18,  4)  (  5, 16,  5)
  0  0.4236E-04  0 -0.2929E-04  0 -0.2516E-04  0 -0.2761E-04  0 -0.2044E-04
   (  5, 16,  3)  (  5, 14,  1)  (  5, 12,  4)  (  5, 19,  2)  (  5, 16,  1)
  0 -0.1548E-04  0  0.9796E-05  0  0.5971E-05  0  0.5928E-05  0 -0.5418E-05
   (  5, 20,  1)  (  5, 21,  1)  (  5, 18,  1)  (  5, 15,  3)  (  5, 19,  3)
  0  0.3311E-05  0 -0.1819E-05  0 -0.1464E-05  0  0.1039E-05  0 -0.9983E-06
   (  5, 17,  2)  (  5, 17,  1)  (  5, 20,  2)  (  5, 19,  1)  (  5, 19,  1)
  1  0.2246E-05  0 -0.2909E-05  0  0.2573E-05  0  0.1553E-05  0  0.1398E-05
   (  5, 15,  4)  (  5, 18,  1)  (  5, 16,  2)  (  5, 13,  5)  (  5, 15,  3)
  0  0.1028E-05  0 -0.6284E-06  1  0.4436E-06
   (  5, 18,  1)  (  5, 17,  4)  (  5, 17,  4)

 MAXIMUM RESIDUAL FOR EACH ITERATION (1 INDICATES THE FIRST INNER ITERATION):

    RESIDUAL       RESIDUAL       RESIDUAL       RESIDUAL       RESIDUAL    
   LAYER,ROW,COL  LAYER,ROW,COL  LAYER,ROW,COL  LAYER,ROW,COL  LAYER,ROW,COL
 ---------------------------------------------------------------------------
  1  0.1428E-01  0  0.1292E-01  0  0.1168E-01  0  0.9958E-02  0  0.7947E-02
   (  3, 17, 17)  (  3, 17, 17)  (  3, 17, 17)  (  3, 17, 17)  (  3, 17, 17)
  0  0.5981E-02  0  0.4033E-02  0  0.2486E-02  0  0.1518E-02  0  0.9775E-03
   (  3, 17, 17)  (  3, 17, 17)  (  3, 17, 17)  (  3, 20, 11)  (  3, 20, 11)
  0  0.6542E-03  0  0.5025E-03  0  0.4656E-03  0  0.3971E-03  0  0.3133E-03
   (  3, 20, 11)  (  4, 16, 17)  (  4, 16, 17)  (  4, 16, 17)  (  4, 16, 17)
  0  0.2841E-03  0  0.2142E-03  0  0.1584E-03  0  0.1129E-03  0  0.7786E-04
   (  4, 16, 17)  (  4, 16, 17)  (  4, 16, 17)  (  4, 16, 17)  (  4, 16, 17)
  0  0.5564E-04  0  0.5095E-04  0  0.4173E-04  0  0.3225E-04  0  0.2015E-04
   (  4, 16, 17)  (  4, 16, 17)  (  4, 16, 17)  (  4, 16, 17)  (  4, 16, 17)
  0  0.1214E-04  0  0.7466E-05  0  0.6007E-05  0  0.3062E-05  0  0.2276E-05
   (  4, 16, 17)  (  4, 16, 17)  (  4, 16, 17)  (  4, 16, 17)  (  3, 17, 17)
  1 -0.4100E-05  0 -0.3521E-05  0 -0.2803E-05  0 -0.1560E-05  0 -0.1361E-05
   (  3, 21,  5)  (  3, 21,  5)  (  5,  6,  1)  (  3, 20, 11)  (  3, 20, 11)
  0 -0.1075E-05  0 -0.9520E-06  0 -0.7212E-06  0 -0.6330E-06  0 -0.4999E-06
   (  3, 20, 11)  (  3, 20, 11)  (  3, 21,  5)  (  3, 21,  5)  (  3, 21,  5)
  0 -0.4116E-06  0 -0.3780E-06  0  0.2924E-06  0  0.1968E-06  0  0.1381E-06
   (  3, 21,  5)  (  3, 21,  5)  (  2, 17, 17)  (  2, 17, 17)  (  2, 17, 17)
  0  0.9347E-07  0  0.6663E-07  0  0.5603E-07  0 -0.4721E-07  0 -0.3420E-07
   (  2, 17, 17)  (  2, 17, 17)  (  2, 17, 17)  (  4, 20,  2)  (  4, 20,  2)
  0 -0.3306E-07  0 -0.2202E-07  0  0.1443E-07  0  0.1237E-07  0  0.9823E-08
   (  4, 20,  2)  (  4, 20,  2)  (  2, 17, 17)  (  2, 17, 17)  (  2, 17, 17)
  1  0.1532E-07  0  0.1233E-07  0  0.9854E-08  0  0.6424E-08  0  0.5114E-08
   (  2, 19,  4)  (  2, 19,  4)  (  2, 19,  4)  (  2, 19,  4)  (  2, 19,  4)
  0  0.4279E-08  0  0.3648E-08  1  0.3599E-08
   (  2, 19,  4)  (  2, 19,  4)  (  2, 19,  4)



 OUTPUT CONTROL FOR STRESS PERIOD   81   TIME STEP    1
    SAVE HEAD FOR ALL LAYERS
    SAVE DRAWDOWN FOR ALL LAYERS
    SAVE BUDGET
    PRINT BUDGET
 UBDSV1 SAVING "         STORAGE" ON UNIT   9 AT TIME STEP  1, STRESS PERIOD  81
 UBDSV2 SAVING "   CONSTANT HEAD" ON UNIT   9 AT TIME STEP  1, STRESS PERIOD  81
 UBDSV1 SAVING "FLOW RIGHT FACE " ON UNIT   9 AT TIME STEP  1, STRESS PERIOD  81
 UBDSV1 SAVING "FLOW FRONT FACE " ON UNIT   9 AT TIME STEP  1, STRESS PERIOD  81
 UBDSV1 SAVING "FLOW LOWER FACE " ON UNIT   9 AT TIME STEP  1, STRESS PERIOD  81
 UBDSV3 SAVING "        RECHARGE" ON UNIT   9 AT TIME STEP  1, STRESS PERIOD  81

 HEAD WILL BE SAVED ON UNIT   37 AT END OF TIME STEP    1, STRESS PERIOD   81

 DRAWDOWN WILL BE SAVED ON UNIT   38 AT END OF TIME STEP    1, STRESS PERIOD   81
1
  VOLUMETRIC BUDGET FOR ENTIRE MODEL AT END OF TIME STEP    1, STRESS PERIOD  81
  ------------------------------------------------------------------------------

     CUMULATIVE VOLUMES      L**3       RATES FOR THIS TIME STEP      L**3/T
     ------------------                 ------------------------

           IN:                                      IN:
           ---                                      ---
             STORAGE =       10789.3262               STORAGE =       2.3618E-03
       CONSTANT HEAD =       22332.7285         CONSTANT HEAD =           0.0000
            RECHARGE =         912.7148              RECHARGE =       9.7813E-05

            TOTAL IN =       34034.7695              TOTAL IN =       2.4597E-03

          OUT:                                     OUT:
          ----                                     ----
             STORAGE =        9635.2773               STORAGE =       2.2179E-05
       CONSTANT HEAD =       24400.3594         CONSTANT HEAD =       2.4376E-03
            RECHARGE =           0.0000              RECHARGE =           0.0000

           TOTAL OUT =       34035.6367             TOTAL OUT =       2.4597E-03

            IN - OUT =          -0.8672              IN - OUT =      -8.5915E-08

 PERCENT DISCREPANCY =          -0.00     PERCENT DISCREPANCY =          -0.00






         TIME SUMMARY AT END OF TIME STEP    1 IN STRESS PERIOD   81
                    SECONDS     MINUTES      HOURS       DAYS        YEARS
                    -----------------------------------------------------------
   TIME STEP LENGTH  86400.      1440.0      24.000      1.0000     2.73785E-03
 STRESS PERIOD TIME  86400.      1440.0      24.000      1.0000     2.73785E-03
         TOTAL TIME 9.33120E+06 1.55520E+05  2592.0      108.00     0.29569    
1
1
                            STRESS PERIOD NO.   82, LENGTH =   345600.0    
                            -----------------------------------------------

                              NUMBER OF TIME STEPS =     4

                               MULTIPLIER FOR DELT =     1.000

                            INITIAL TIME STEP SIZE =   86400.00    

 REUSING RECH FROM LAST STRESS PERIOD

 CHD NO.   LAYER   ROW   COL    START HEAD        END HEAD         IFACE           
 ----------------------------------------------------------------------------------
      1      4      1      1       110.4           110.4           0.000    
      2      5      1      1       110.4           110.4           0.000    
      3      4      1      2       110.4           110.4           0.000    
      4      5      1      2       110.4           110.4           0.000    
      5      4      1      3       110.4           110.4           0.000    
      6      5      1      3       110.4           110.4           0.000    
      7      4      1      4       110.4           110.4           0.000    
      8      5      1      4       110.4           110.4           0.000    
      9      4      1      5       110.4           110.4           0.000    
     10      5      1      5       110.4           110.4           0.000    
     11      4      1      6       110.4           110.4           0.000    
     12      5      1      6       110.4           110.4           0.000    
     13      4      1      7       110.4           110.4           0.000    
     14      5      1      7       110.4           110.4           0.000    
     15      4      1      8       110.4           110.4           0.000    
     16      5      1      8       110.4           110.4           0.000    
     17      4      1      9       110.4           110.4           0.000    
     18      5      1      9       110.4           110.4           0.000    
     19      4      1     10       110.4           110.4           0.000    
     20      5      1     10       110.4           110.4           0.000    
     21      4      1     11       110.4           110.4           0.000    
     22      5      1     11       110.4           110.4           0.000    
     23      4      1     12       110.4           110.4           0.000    
     24      5      1     12       110.4           110.4           0.000    
     25      4      1     13       110.4           110.4           0.000    
     26      5      1     13       110.4           110.4           0.000    
     27      4      1     14       110.4           110.4           0.000    
     28      5      1     14       110.4           110.4           0.000    
     29      4      1     15       110.4           110.4           0.000    
     30      5      1     15       110.4           110.4           0.000    
     31      4      1     16       110.4           110.4           0.000    
     32      5      1     16       110.4           110.4           0.000    
     33      4      1     17       110.4           110.4           0.000    
     34      5      1     17       110.4           110.4           0.000    
     35      4     17     17       110.5           110.4           0.000    
     36      5     17     17       110.5           110.4           0.000    
     37      4     18     17       110.5           110.4           0.000    
     38      5     18     17       110.5           110.4           0.000    
     39      4     18     16       110.5           110.4           0.000    
     40      5     18     16       110.5           110.4           0.000    
     41      4     19     16       110.5           110.4           0.000    
     42      5     19     16       110.5           110.4           0.000    
     43      4     19     15       110.4           110.4           0.000    
     44      5     19     15       110.4           110.4           0.000    
     45      4     20     15       110.4           110.4           0.000    
     46      5     20     15       110.4           110.4           0.000    
     47      4     20     14       110.4           110.4           0.000    
     48      5     20     14       110.4           110.4           0.000    
     49      4     20     13       110.4           110.4           0.000    
     50      5     20     13       110.4           110.4           0.000    
     51      4     20     12       110.4           110.4           0.000    
     52      5     20     12       110.4           110.4           0.000    
     53      4     20     11       110.4           110.4           0.000    
     54      5     20     11       110.4           110.4           0.000    
     55      4     21     11       110.4           110.4           0.000    
     56      5     21     11       110.4           110.4           0.000    
     57      4     21     10       110.4           110.4           0.000    
     58      5     21     10       110.4           110.4           0.000    
     59      4     21      9       110.4           110.4           0.000    
     60      5     21      9       110.4           110.4           0.000    
     61      4     21      8       110.4           110.4           0.000    
     62      5     21      8       110.4           110.4           0.000    
     63      4     21      7       110.4           110.4           0.000    
     64      5     21      7       110.4           110.4           0.000    
     65      4     21      6       110.4           110.4           0.000    
     66      5     21      6       110.4           110.4           0.000    
     67      4     21      5       110.4           110.4           0.000    
     68      5     21      5       110.4           110.4           0.000    
     69      4     22      5       110.4           110.4           0.000    
     70      5     22      5       110.4           110.4           0.000    
     71      4     22      4       110.4           110.4           0.000    
     72      5     22      4       110.4           110.4           0.000    
     73      4     22      3       110.4           110.4           0.000    
     74      5     22      3       110.4           110.4           0.000    
     75      4     22      2       110.4           110.4           0.000    
     76      5     22      2       110.4           110.4           0.000    
     77      4     22      1       110.4           110.4           0.000    
     78      5     22      1       110.4           110.4           0.000    


     78 TIME-VARIANT SPECIFIED-HEAD CELLS

 SOLVING FOR HEAD 


     3 CALLS TO PCG ROUTINE FOR TIME STEP   1 IN STRESS PERIOD   82
    47 TOTAL ITERATIONS

 MAXIMUM HEAD CHANGE FOR EACH ITERATION (1 INDICATES THE FIRST INNER ITERATION):

    HEAD CHANGE    HEAD CHANGE    HEAD CHANGE    HEAD CHANGE    HEAD CHANGE 
   LAYER,ROW,COL  LAYER,ROW,COL  LAYER,ROW,COL  LAYER,ROW,COL  LAYER,ROW,COL
 ---------------------------------------------------------------------------
  1 -0.3905E-01  0  0.2435E-01  0  0.2145E-01  0 -0.1691E-01  0 -0.2335E-01
   (  5, 21,  2)  (  5, 17,  1)  (  5, 20,  1)  (  5, 18,  1)  (  5, 19,  1)
  0 -0.1504E-01  0 -0.1021E-01  0 -0.9842E-02  0 -0.7177E-02  0 -0.5126E-02
   (  5, 17,  4)  (  5, 20,  2)  (  5, 17,  1)  (  5, 16,  3)  (  5, 19,  1)
  0 -0.4115E-02  0 -0.2571E-02  0  0.2765E-02  0 -0.1258E-02  0 -0.1212E-02
   (  5, 14,  5)  (  5, 14,  1)  (  5, 16,  2)  (  5, 15,  3)  (  5, 19,  3)
  0  0.9290E-03  0  0.7089E-03  0 -0.5820E-03  0  0.3810E-03  0  0.3445E-03
   (  5, 18,  2)  (  5, 13,  2)  (  5, 17,  2)  (  5, 19,  3)  (  5, 17,  2)
  0 -0.2293E-03  0  0.2271E-03  0 -0.1404E-03  0 -0.1168E-03  0 -0.9511E-04
   (  5, 16,  1)  (  5, 19,  3)  (  5, 19,  1)  (  5, 19,  3)  (  5, 18,  5)
  0  0.5530E-04  0 -0.3921E-04  0 -0.4351E-04  0  0.2769E-04  0 -0.1259E-04
   (  5, 17,  5)  (  5, 14,  2)  (  5, 18,  1)  (  5, 18,  1)  (  5, 16,  1)
  1  0.2516E-04  0  0.3673E-04  0 -0.3692E-04  0 -0.2390E-04  0  0.2311E-04
   (  5, 16,  1)  (  5,  6,  1)  (  5,  6,  1)  (  5, 19,  2)  (  5,  6,  1)
  0 -0.1354E-04  0 -0.8511E-05  0 -0.5512E-05  0 -0.6716E-05  0  0.3346E-05
   (  5, 15,  5)  (  5,  6,  1)  (  5, 19,  1)  (  5, 18,  4)  (  5, 18,  3)
  0  0.3015E-05  0 -0.2794E-05  0 -0.2786E-05  0 -0.1848E-05  0 -0.1147E-05
   (  5, 15,  1)  (  5, 16,  2)  (  5, 20,  1)  (  5, 13,  5)  (  5, 19,  2)
  0  0.9917E-06  1 -0.6662E-06
   (  5, 19,  3)  (  5, 18,  2)

 MAXIMUM RESIDUAL FOR EACH ITERATION (1 INDICATES THE FIRST INNER ITERATION):

    RESIDUAL       RESIDUAL       RESIDUAL       RESIDUAL       RESIDUAL    
   LAYER,ROW,COL  LAYER,ROW,COL  LAYER,ROW,COL  LAYER,ROW,COL  LAYER,ROW,COL
 ---------------------------------------------------------------------------
  1  0.7453E-03  0  0.6962E-03  0  0.6436E-03  0  0.5717E-03  0  0.4611E-03
   (  3, 17, 17)  (  3, 17, 17)  (  3, 17, 17)  (  3, 17, 17)  (  3, 17, 17)
  0  0.3661E-03  0  0.2513E-03  0  0.1548E-03  0  0.1019E-03  0  0.6524E-04
   (  3, 17, 17)  (  3, 17, 17)  (  3, 20, 11)  (  3, 20, 11)  (  3, 20, 11)
  0  0.4514E-04  0  0.3462E-04  0  0.2698E-04  0  0.2207E-04  0  0.1743E-04
   (  3, 20, 11)  (  3, 20, 11)  (  4, 16, 17)  (  4, 16, 17)  (  4, 16, 17)
  0  0.1434E-04  0  0.1200E-04  0  0.7975E-05  0  0.5583E-05  0  0.3755E-05
   (  4, 16, 17)  (  4, 16, 17)  (  4, 16, 17)  (  4, 16, 17)  (  4, 16, 17)
  0 -0.3387E-05  0 -0.2877E-05  0 -0.2561E-05  0 -0.1978E-05  0 -0.1405E-05
   (  3, 21,  6)  (  3, 21,  6)  (  3, 21,  6)  (  3, 21,  6)  (  3, 21,  6)
  0 -0.9769E-06  0 -0.7433E-06  0 -0.6006E-06  0 -0.3442E-06  0 -0.3200E-06
   (  3, 21,  6)  (  3, 21,  6)  (  3, 21,  6)  (  3, 21,  6)  (  3, 21,  6)
  1 -0.3258E-06  0 -0.2474E-06  0 -0.1572E-06  0 -0.1347E-06  0 -0.8416E-07
   (  3, 21,  6)  (  3, 21,  6)  (  3, 21,  6)  (  5,  6,  1)  (  4, 18, 14)
  0 -0.7356E-07  0  0.5934E-07  0  0.5635E-07  0  0.4846E-07  0  0.3991E-07
   (  4, 18, 14)  (  4, 16, 17)  (  4, 16, 17)  (  4, 16, 17)  (  4, 16, 17)
  0  0.3517E-07  0  0.3007E-07  0  0.2115E-07  0  0.1510E-07  0  0.9000E-08
   (  4, 16, 17)  (  4, 16, 17)  (  4, 16, 17)  (  4, 16, 17)  (  4, 16, 17)
  0  0.6739E-08  1  0.6696E-08
   (  4, 16, 17)  (  4, 16, 17)



 OUTPUT CONTROL FOR STRESS PERIOD   82   TIME STEP    1
    SAVE HEAD FOR ALL LAYERS
    SAVE DRAWDOWN FOR ALL LAYERS
    SAVE BUDGET
    PRINT BUDGET
 UBDSV1 SAVING "         STORAGE" ON UNIT   9 AT TIME STEP  1, STRESS PERIOD  82
 UBDSV2 SAVING "   CONSTANT HEAD" ON UNIT   9 AT TIME STEP  1, STRESS PERIOD  82
 UBDSV1 SAVING "FLOW RIGHT FACE " ON UNIT   9 AT TIME STEP  1, STRESS PERIOD  82
 UBDSV1 SAVING "FLOW FRONT FACE " ON UNIT   9 AT TIME STEP  1, STRESS PERIOD  82
 UBDSV1 SAVING "FLOW LOWER FACE " ON UNIT   9 AT TIME STEP  1, STRESS PERIOD  82
 UBDSV3 SAVING "        RECHARGE" ON UNIT   9 AT TIME STEP  1, STRESS PERIOD  82

 HEAD WILL BE SAVED ON UNIT   37 AT END OF TIME STEP    1, STRESS PERIOD   82

 DRAWDOWN WILL BE SAVED ON UNIT   38 AT END OF TIME STEP    1, STRESS PERIOD   82
1
  VOLUMETRIC BUDGET FOR ENTIRE MODEL AT END OF TIME STEP    1, STRESS PERIOD  82
  ------------------------------------------------------------------------------

     CUMULATIVE VOLUMES      L**3       RATES FOR THIS TIME STEP      L**3/T
     ------------------                 ------------------------

           IN:                                      IN:
           ---                                      ---
             STORAGE =       10867.4824               STORAGE =       9.0459E-04
       CONSTANT HEAD =       22339.2617         CONSTANT HEAD =       7.5609E-05
            RECHARGE =         921.1659              RECHARGE =       9.7813E-05

            TOTAL IN =       34127.9062              TOTAL IN =       1.0780E-03

          OUT:                                     OUT:
          ----                                     ----
             STORAGE =        9635.2773               STORAGE =           0.0000
       CONSTANT HEAD =       24493.5078         CONSTANT HEAD =       1.0781E-03
            RECHARGE =           0.0000              RECHARGE =           0.0000

           TOTAL OUT =       34128.7852             TOTAL OUT =       1.0781E-03

            IN - OUT =          -0.8789              IN - OUT =      -9.8953E-08

 PERCENT DISCREPANCY =          -0.00     PERCENT DISCREPANCY =          -0.01






         TIME SUMMARY AT END OF TIME STEP    1 IN STRESS PERIOD   82
                    SECONDS     MINUTES      HOURS       DAYS        YEARS
                    -----------------------------------------------------------
   TIME STEP LENGTH  86400.      1440.0      24.000      1.0000     2.73785E-03
 STRESS PERIOD TIME  86400.      1440.0      24.000      1.0000     2.73785E-03
         TOTAL TIME 9.41760E+06 1.56960E+05  2616.0      109.00     0.29843    
1

 SOLVING FOR HEAD 
     3 CALLS TO PCG ROUTINE FOR TIME STEP   2 IN STRESS PERIOD   82
    44 TOTAL ITERATIONS

 MAXIMUM HEAD CHANGE FOR EACH ITERATION (1 INDICATES THE FIRST INNER ITERATION):

    HEAD CHANGE    HEAD CHANGE    HEAD CHANGE    HEAD CHANGE    HEAD CHANGE 
   LAYER,ROW,COL  LAYER,ROW,COL  LAYER,ROW,COL  LAYER,ROW,COL  LAYER,ROW,COL
 ---------------------------------------------------------------------------
  1 -0.3127E-01  0  0.1973E-01  0 -0.1729E-01  0 -0.1338E-01  0 -0.1742E-01
   (  5, 21,  2)  (  5, 17,  1)  (  5, 16,  2)  (  5, 17,  1)  (  5, 19,  1)
  0 -0.1050E-01  0  0.9226E-02  0 -0.7203E-02  0 -0.6279E-02  0 -0.3780E-02
   (  5, 20,  1)  (  5, 18,  1)  (  5, 17,  1)  (  5, 18,  1)  (  5, 19,  1)
  0 -0.2989E-02  0  0.2567E-02  0 -0.1422E-02  0 -0.1206E-02  0 -0.7665E-03
   (  5, 17,  3)  (  5, 16,  3)  (  5, 15,  1)  (  5, 12,  5)  (  5, 19,  3)
  0 -0.5998E-03  0  0.5814E-03  0  0.3876E-03  0  0.5000E-03  0  0.2081E-03
   (  5, 18,  1)  (  5, 18,  2)  (  5, 16,  1)  (  5, 19,  3)  (  5, 17,  2)
  0 -0.1959E-03  0  0.1374E-03  0 -0.1022E-03  0 -0.7835E-04  0  0.5106E-04
   (  5, 17,  1)  (  5, 15,  1)  (  5, 19,  2)  (  5, 19,  1)  (  5, 19,  2)
  0 -0.3849E-04  0 -0.3549E-04  0 -0.2464E-04  0 -0.2181E-04  0  0.1284E-04
   (  5, 20,  2)  (  5, 14,  2)  (  5, 18,  1)  (  5,  6,  1)  (  5,  6,  1)
  1 -0.1028E-04  0 -0.1386E-04  0  0.1721E-04  0 -0.8489E-05  0 -0.9362E-05
   (  5, 15,  1)  (  5,  6,  1)  (  5,  6,  1)  (  5, 19,  2)  (  5, 15,  4)
  0  0.6892E-05  0  0.4424E-05  0 -0.5058E-05  0 -0.2518E-05  0  0.2143E-05
   (  5, 16,  4)  (  5, 20,  1)  (  5, 19,  1)  (  5, 18,  2)  (  5, 18,  3)
  0 -0.1415E-05  0  0.1074E-05  0 -0.9095E-06  1 -0.5825E-06
   (  5, 14,  1)  (  5, 16,  1)  (  5, 19,  2)  (  5, 13,  5)

 MAXIMUM RESIDUAL FOR EACH ITERATION (1 INDICATES THE FIRST INNER ITERATION):

    RESIDUAL       RESIDUAL       RESIDUAL       RESIDUAL       RESIDUAL    
   LAYER,ROW,COL  LAYER,ROW,COL  LAYER,ROW,COL  LAYER,ROW,COL  LAYER,ROW,COL
 ---------------------------------------------------------------------------
  1  0.7487E-03  0  0.6765E-03  0  0.6110E-03  0  0.5289E-03  0  0.4311E-03
   (  3, 17, 17)  (  3, 17, 17)  (  3, 17, 17)  (  3, 17, 17)  (  3, 17, 17)
  0  0.3305E-03  0  0.2216E-03  0  0.1305E-03  0  0.7464E-04  0  0.4623E-04
   (  3, 17, 17)  (  3, 17, 17)  (  3, 17, 17)  (  3, 20, 11)  (  3, 20, 11)
  0 -0.3122E-04  0 -0.2570E-04  0  0.2361E-04  0  0.1925E-04  0  0.1529E-04
   (  4, 21,  2)  (  4, 21,  2)  (  4, 16, 17)  (  4, 16, 17)  (  4, 16, 17)
  0  0.1226E-04  0  0.1068E-04  0  0.7919E-05  0  0.5705E-05  0  0.3824E-05
   (  4, 16, 17)  (  4, 16, 17)  (  4, 16, 17)  (  4, 16, 17)  (  4, 16, 17)
  0  0.2851E-05  0 -0.2566E-05  0 -0.1862E-05  0 -0.1407E-05  0 -0.1126E-05
   (  4, 16, 17)  (  3, 21,  6)  (  3, 21,  6)  (  3, 21,  6)  (  3, 21,  6)
  0 -0.7128E-06  0 -0.4672E-06  0 -0.3700E-06  0 -0.1834E-06  0 -0.1137E-06
   (  3, 21,  6)  (  3, 21,  6)  (  3, 21,  6)  (  3, 21,  6)  (  3, 21,  5)
  1 -0.1245E-06  0 -0.9627E-07  0  0.6885E-07  0  0.6013E-07  0  0.4505E-07
   (  3, 21,  5)  (  3, 21,  5)  (  5, 15, 17)  (  5, 15, 17)  (  5, 15, 17)
  0 -0.4000E-07  0 -0.3643E-07  0  0.2958E-07  0  0.2461E-07  0  0.2141E-07
   (  4, 18, 14)  (  4, 18, 14)  (  4, 16, 17)  (  4, 16, 17)  (  4, 16, 17)
  0  0.1970E-07  0  0.1606E-07  0  0.1186E-07  1  0.1137E-07
   (  4, 16, 17)  (  4, 16, 17)  (  4, 16, 17)  (  4, 16, 17)



 OUTPUT CONTROL FOR STRESS PERIOD   82   TIME STEP    2
    SAVE HEAD FOR ALL LAYERS
    SAVE DRAWDOWN FOR ALL LAYERS
    SAVE BUDGET
    PRINT BUDGET
 UBDSV1 SAVING "         STORAGE" ON UNIT   9 AT TIME STEP  2, STRESS PERIOD  82
 UBDSV2 SAVING "   CONSTANT HEAD" ON UNIT   9 AT TIME STEP  2, STRESS PERIOD  82
 UBDSV1 SAVING "FLOW RIGHT FACE " ON UNIT   9 AT TIME STEP  2, STRESS PERIOD  82
 UBDSV1 SAVING "FLOW FRONT FACE " ON UNIT   9 AT TIME STEP  2, STRESS PERIOD  82
 UBDSV1 SAVING "FLOW LOWER FACE " ON UNIT   9 AT TIME STEP  2, STRESS PERIOD  82
 UBDSV3 SAVING "        RECHARGE" ON UNIT   9 AT TIME STEP  2, STRESS PERIOD  82

 HEAD WILL BE SAVED ON UNIT   37 AT END OF TIME STEP    2, STRESS PERIOD   82

 DRAWDOWN WILL BE SAVED ON UNIT   38 AT END OF TIME STEP    2, STRESS PERIOD   82
1
  VOLUMETRIC BUDGET FOR ENTIRE MODEL AT END OF TIME STEP    2, STRESS PERIOD  82
  ------------------------------------------------------------------------------

     CUMULATIVE VOLUMES      L**3       RATES FOR THIS TIME STEP      L**3/T
     ------------------                 ------------------------

           IN:                                      IN:
           ---                                      ---
             STORAGE =       10916.8008               STORAGE =       5.7081E-04
       CONSTANT HEAD =       22351.3281         CONSTANT HEAD =       1.3965E-04
            RECHARGE =         929.6169              RECHARGE =       9.7813E-05

            TOTAL IN =       34197.7461              TOTAL IN =       8.0828E-04

          OUT:                                     OUT:
          ----                                     ----
             STORAGE =        9635.2773               STORAGE =           0.0000
       CONSTANT HEAD =       24563.3535         CONSTANT HEAD =       8.0839E-04
            RECHARGE =           0.0000              RECHARGE =           0.0000

           TOTAL OUT =       34198.6328             TOTAL OUT =       8.0839E-04

            IN - OUT =          -0.8867              IN - OUT =      -1.0885E-07

 PERCENT DISCREPANCY =          -0.00     PERCENT DISCREPANCY =          -0.01






         TIME SUMMARY AT END OF TIME STEP    2 IN STRESS PERIOD   82
                    SECONDS     MINUTES      HOURS       DAYS        YEARS
                    -----------------------------------------------------------
   TIME STEP LENGTH  86400.      1440.0      24.000      1.0000     2.73785E-03
 STRESS PERIOD TIME 1.72800E+05  2880.0      48.000      2.0000     5.47570E-03
         TOTAL TIME 9.50400E+06 1.58400E+05  2640.0      110.00     0.30116    
1

 SOLVING FOR HEAD 
     3 CALLS TO PCG ROUTINE FOR TIME STEP   3 IN STRESS PERIOD   82
    44 TOTAL ITERATIONS

 MAXIMUM HEAD CHANGE FOR EACH ITERATION (1 INDICATES THE FIRST INNER ITERATION):

    HEAD CHANGE    HEAD CHANGE    HEAD CHANGE    HEAD CHANGE    HEAD CHANGE 
   LAYER,ROW,COL  LAYER,ROW,COL  LAYER,ROW,COL  LAYER,ROW,COL  LAYER,ROW,COL
 ---------------------------------------------------------------------------
  1 -0.2903E-01  0  0.1874E-01  0 -0.1663E-01  0 -0.1299E-01  0 -0.1686E-01
   (  5, 21,  2)  (  5, 17,  1)  (  5, 16,  2)  (  5, 17,  1)  (  5, 19,  1)
  0 -0.1038E-01  0  0.8951E-02  0  0.6466E-02  0 -0.6108E-02  0  0.3451E-02
   (  5, 20,  1)  (  5, 18,  1)  (  5, 19,  1)  (  5, 18,  1)  (  5, 18,  4)
  0 -0.3024E-02  0  0.2000E-02  0 -0.1688E-02  0 -0.1215E-02  0 -0.7290E-03
   (  5, 17,  3)  (  5, 16,  3)  (  5, 15,  1)  (  5, 12,  5)  (  5, 19,  3)
  0 -0.6193E-03  0  0.5929E-03  0  0.3715E-03  0  0.4879E-03  0  0.1998E-03
   (  5, 18,  1)  (  5, 18,  2)  (  5, 16,  1)  (  5, 19,  3)  (  5, 17,  2)
  0 -0.1301E-03  0  0.1448E-03  0  0.1056E-03  0 -0.1043E-03  0 -0.5910E-04
   (  5, 16,  1)  (  5, 17,  2)  (  5, 19,  1)  (  5, 19,  2)  (  5, 18,  5)
  0 -0.3601E-04  0 -0.2898E-04  0 -0.1553E-04  0  0.1893E-04  0  0.9816E-05
   (  5, 20,  3)  (  5, 14,  2)  (  5, 19,  2)  (  5, 18,  1)  (  5, 15,  1)
  1 -0.9550E-05  0  0.1415E-04  0  0.7997E-05  0 -0.1288E-04  0  0.7725E-05
   (  5, 16,  1)  (  5,  6,  1)  (  5, 19,  1)  (  5,  6,  1)  (  5,  6,  1)
  0 -0.5564E-05  0  0.3589E-05  0  0.3237E-05  0 -0.2227E-05  0  0.1423E-05
   (  5, 13,  4)  (  5, 19,  2)  (  5, 17,  4)  (  5, 16,  4)  (  5, 16,  1)
  0 -0.1416E-05  0  0.1233E-05  0 -0.9124E-06  1  0.5344E-06
   (  5, 16,  2)  (  5, 16,  4)  (  5, 17,  5)  (  5,  6,  2)

 MAXIMUM RESIDUAL FOR EACH ITERATION (1 INDICATES THE FIRST INNER ITERATION):

    RESIDUAL       RESIDUAL       RESIDUAL       RESIDUAL       RESIDUAL    
   LAYER,ROW,COL  LAYER,ROW,COL  LAYER,ROW,COL  LAYER,ROW,COL  LAYER,ROW,COL
 ---------------------------------------------------------------------------
  1  0.7521E-03  0  0.6768E-03  0  0.6077E-03  0  0.5196E-03  0  0.4191E-03
   (  3, 17, 17)  (  3, 17, 17)  (  3, 17, 17)  (  3, 17, 17)  (  3, 17, 17)
  0  0.3180E-03  0  0.2135E-03  0  0.1262E-03  0  0.7146E-04  0  0.4417E-04
   (  3, 17, 17)  (  3, 17, 17)  (  3, 17, 17)  (  3, 20, 11)  (  3, 20, 11)
  0 -0.3082E-04  0 -0.2822E-04  0  0.2408E-04  0  0.1948E-04  0  0.1538E-04
   (  4, 21,  2)  (  4, 21,  2)  (  4, 16, 17)  (  4, 16, 17)  (  4, 16, 17)
  0  0.1239E-04  0  0.1066E-04  0  0.7933E-05  0  0.5681E-05  0  0.3881E-05
   (  4, 16, 17)  (  4, 16, 17)  (  4, 16, 17)  (  4, 16, 17)  (  4, 16, 17)
  0  0.3578E-05  0  0.2685E-05  0 -0.2286E-05  0 -0.1676E-05  0 -0.1089E-05
   (  4, 16, 17)  (  4, 16, 17)  (  3, 21,  6)  (  3, 21,  6)  (  3, 21,  6)
  0 -0.6743E-06  0 -0.3720E-06  0 -0.3211E-06  0 -0.1645E-06  0 -0.1434E-06
   (  3, 21,  6)  (  3, 21,  6)  (  3, 21,  6)  (  3, 21,  6)  (  3, 21,  6)
  1 -0.1502E-06  0 -0.1328E-06  0 -0.1230E-06  0 -0.9034E-07  0  0.6321E-07
   (  3, 21,  6)  (  3, 21,  6)  (  3, 21,  6)  (  3, 21,  6)  (  4, 16, 17)
  0  0.5510E-07  0  0.4551E-07  0  0.4011E-07  0  0.2963E-07  0  0.2358E-07
   (  4, 16, 17)  (  4, 16, 17)  (  4, 16, 17)  (  4, 16, 17)  (  4, 16, 17)
  0  0.2162E-07  0  0.1797E-07  0  0.1308E-07  1  0.1230E-07
   (  4, 16, 17)  (  4, 16, 17)  (  4, 16, 17)  (  4, 16, 17)



 OUTPUT CONTROL FOR STRESS PERIOD   82   TIME STEP    3
    SAVE HEAD FOR ALL LAYERS
    SAVE DRAWDOWN FOR ALL LAYERS
    SAVE BUDGET
    PRINT BUDGET
 UBDSV1 SAVING "         STORAGE" ON UNIT   9 AT TIME STEP  3, STRESS PERIOD  82
 UBDSV2 SAVING "   CONSTANT HEAD" ON UNIT   9 AT TIME STEP  3, STRESS PERIOD  82
 UBDSV1 SAVING "FLOW RIGHT FACE " ON UNIT   9 AT TIME STEP  3, STRESS PERIOD  82
 UBDSV1 SAVING "FLOW FRONT FACE " ON UNIT   9 AT TIME STEP  3, STRESS PERIOD  82
 UBDSV1 SAVING "FLOW LOWER FACE " ON UNIT   9 AT TIME STEP  3, STRESS PERIOD  82
 UBDSV3 SAVING "        RECHARGE" ON UNIT   9 AT TIME STEP  3, STRESS PERIOD  82

 HEAD WILL BE SAVED ON UNIT   37 AT END OF TIME STEP    3, STRESS PERIOD   82

 DRAWDOWN WILL BE SAVED ON UNIT   38 AT END OF TIME STEP    3, STRESS PERIOD   82
1
  VOLUMETRIC BUDGET FOR ENTIRE MODEL AT END OF TIME STEP    3, STRESS PERIOD  82
  ------------------------------------------------------------------------------

     CUMULATIVE VOLUMES      L**3       RATES FOR THIS TIME STEP      L**3/T
     ------------------                 ------------------------

           IN:                                      IN:
           ---                                      ---
             STORAGE =       10957.4258               STORAGE =       4.7020E-04
       CONSTANT HEAD =       22363.7617         CONSTANT HEAD =       1.4390E-04
            RECHARGE =         938.0680              RECHARGE =       9.7813E-05

            TOTAL IN =       34259.2539              TOTAL IN =       7.1191E-04

          OUT:                                     OUT:
          ----                                     ----
             STORAGE =        9635.2773               STORAGE =           0.0000
       CONSTANT HEAD =       24624.8730         CONSTANT HEAD =       7.1202E-04
            RECHARGE =           0.0000              RECHARGE =           0.0000

           TOTAL OUT =       34260.1484             TOTAL OUT =       7.1202E-04

            IN - OUT =          -0.8945              IN - OUT =      -1.0733E-07

 PERCENT DISCREPANCY =          -0.00     PERCENT DISCREPANCY =          -0.02






         TIME SUMMARY AT END OF TIME STEP    3 IN STRESS PERIOD   82
                    SECONDS     MINUTES      HOURS       DAYS        YEARS
                    -----------------------------------------------------------
   TIME STEP LENGTH  86400.      1440.0      24.000      1.0000     2.73785E-03
 STRESS PERIOD TIME 2.59200E+05  4320.0      72.000      3.0000     8.21355E-03
         TOTAL TIME 9.59040E+06 1.59840E+05  2664.0      111.00     0.30390    
1

 SOLVING FOR HEAD 
     3 CALLS TO PCG ROUTINE FOR TIME STEP   4 IN STRESS PERIOD   82
    43 TOTAL ITERATIONS

 MAXIMUM HEAD CHANGE FOR EACH ITERATION (1 INDICATES THE FIRST INNER ITERATION):

    HEAD CHANGE    HEAD CHANGE    HEAD CHANGE    HEAD CHANGE    HEAD CHANGE 
   LAYER,ROW,COL  LAYER,ROW,COL  LAYER,ROW,COL  LAYER,ROW,COL  LAYER,ROW,COL
 ---------------------------------------------------------------------------
  1 -0.2840E-01  0  0.1844E-01  0 -0.1637E-01  0 -0.1284E-01  0 -0.1680E-01
   (  5, 21,  2)  (  5, 17,  1)  (  5, 16,  2)  (  5, 17,  1)  (  5, 19,  1)
  0 -0.1024E-01  0  0.8849E-02  0  0.6415E-02  0 -0.5989E-02  0 -0.3389E-02
   (  5, 20,  1)  (  5, 18,  1)  (  5, 19,  1)  (  5, 18,  1)  (  5, 19,  1)
  0 -0.2650E-02  0 -0.1620E-02  0  0.1442E-02  0 -0.1195E-02  0 -0.7348E-03
   (  5, 17,  3)  (  5, 14,  1)  (  5, 16,  2)  (  5, 12,  5)  (  5, 19,  3)
  0 -0.5444E-03  0  0.4587E-03  0  0.3384E-03  0  0.4874E-03  0  0.1790E-03
   (  5, 18,  1)  (  5, 18,  2)  (  5, 16,  1)  (  5, 19,  3)  (  5, 17,  2)
  0 -0.1896E-03  0  0.1345E-03  0 -0.1199E-03  0  0.5373E-04  0 -0.6674E-04
   (  5, 16,  1)  (  5, 15,  1)  (  5, 19,  2)  (  5, 19,  1)  (  5, 18,  1)
  0 -0.3456E-04  0 -0.2877E-04  0 -0.1601E-04  0  0.2178E-04  0 -0.1233E-04
   (  5, 20,  3)  (  5, 14,  2)  (  5, 19,  1)  (  5, 18,  1)  (  5, 17,  1)
  1  0.1058E-04  0 -0.1213E-04  0  0.1107E-04  0  0.8041E-05  0  0.6367E-05
   (  5, 16,  1)  (  5, 20,  1)  (  5, 19,  1)  (  5, 14,  2)  (  5, 18,  3)
  0  0.7280E-05  0 -0.4503E-05  0 -0.3717E-05  0  0.1784E-05  0 -0.1526E-05
   (  5,  6,  1)  (  5,  6,  1)  (  5, 16,  4)  (  5, 14,  4)  (  5, 16,  2)
  0  0.1260E-05  0 -0.9338E-06  1  0.8163E-06
   (  5, 16,  1)  (  5, 19,  1)  (  5, 19,  1)

 MAXIMUM RESIDUAL FOR EACH ITERATION (1 INDICATES THE FIRST INNER ITERATION):

    RESIDUAL       RESIDUAL       RESIDUAL       RESIDUAL       RESIDUAL    
   LAYER,ROW,COL  LAYER,ROW,COL  LAYER,ROW,COL  LAYER,ROW,COL  LAYER,ROW,COL
 ---------------------------------------------------------------------------
  1  0.7526E-03  0  0.6773E-03  0  0.6078E-03  0  0.5182E-03  0  0.4163E-03
   (  3, 17, 17)  (  3, 17, 17)  (  3, 17, 17)  (  3, 17, 17)  (  3, 17, 17)
  0  0.3149E-03  0  0.2114E-03  0  0.1256E-03  0  0.7152E-04  0  0.4426E-04
   (  3, 17, 17)  (  3, 17, 17)  (  3, 17, 17)  (  3, 20, 11)  (  3, 20, 11)
  0  0.3089E-04  0  0.2604E-04  0  0.2429E-04  0  0.1966E-04  0  0.1547E-04
   (  4, 16, 17)  (  4, 16, 17)  (  4, 16, 17)  (  4, 16, 17)  (  4, 16, 17)
  0  0.1188E-04  0  0.1063E-04  0  0.7937E-05  0  0.5674E-05  0  0.3852E-05
   (  4, 16, 17)  (  4, 16, 17)  (  4, 16, 17)  (  4, 16, 17)  (  4, 16, 17)
  0  0.2973E-05  0  0.2526E-05  0 -0.1810E-05  0 -0.1539E-05  0 -0.1076E-05
   (  4, 16, 17)  (  4, 16, 17)  (  3, 21,  6)  (  3, 21,  6)  (  3, 21,  6)
  0 -0.6665E-06  0 -0.3684E-06  0 -0.3200E-06  0 -0.1607E-06  0 -0.1228E-06
   (  3, 21,  6)  (  3, 21,  6)  (  3, 21,  6)  (  3, 21,  6)  (  3, 21,  6)
  1 -0.1317E-06  0 -0.1114E-06  0 -0.1004E-06  0 -0.8501E-07  0  0.6392E-07
   (  3, 21,  5)  (  3, 21,  6)  (  3, 21,  6)  (  3, 21,  6)  (  4, 16, 17)
  0  0.5069E-07  0  0.3897E-07  0  0.3229E-07  0  0.2506E-07  0  0.2265E-07
   (  4, 16, 17)  (  4, 16, 17)  (  4, 16, 17)  (  4, 16, 17)  (  4, 16, 17)
  0  0.1750E-07  0  0.1511E-07  1  0.1475E-07
   (  4, 16, 17)  (  4, 16, 17)  (  4, 16, 17)



 OUTPUT CONTROL FOR STRESS PERIOD   82   TIME STEP    4
    SAVE HEAD FOR ALL LAYERS
    SAVE DRAWDOWN FOR ALL LAYERS
    SAVE BUDGET
    PRINT BUDGET
 UBDSV1 SAVING "         STORAGE" ON UNIT   9 AT TIME STEP  4, STRESS PERIOD  82
 UBDSV2 SAVING "   CONSTANT HEAD" ON UNIT   9 AT TIME STEP  4, STRESS PERIOD  82
 UBDSV1 SAVING "FLOW RIGHT FACE " ON UNIT   9 AT TIME STEP  4, STRESS PERIOD  82
 UBDSV1 SAVING "FLOW FRONT FACE " ON UNIT   9 AT TIME STEP  4, STRESS PERIOD  82
 UBDSV1 SAVING "FLOW LOWER FACE " ON UNIT   9 AT TIME STEP  4, STRESS PERIOD  82
 UBDSV3 SAVING "        RECHARGE" ON UNIT   9 AT TIME STEP  4, STRESS PERIOD  82

 HEAD WILL BE SAVED ON UNIT   37 AT END OF TIME STEP    4, STRESS PERIOD   82

 DRAWDOWN WILL BE SAVED ON UNIT   38 AT END OF TIME STEP    4, STRESS PERIOD   82
1
  VOLUMETRIC BUDGET FOR ENTIRE MODEL AT END OF TIME STEP    4, STRESS PERIOD  82
  ------------------------------------------------------------------------------

     CUMULATIVE VOLUMES      L**3       RATES FOR THIS TIME STEP      L**3/T
     ------------------                 ------------------------

           IN:                                      IN:
           ---                                      ---
             STORAGE =       10995.2148               STORAGE =       4.3737E-04
       CONSTANT HEAD =       22375.0820         CONSTANT HEAD =       1.3102E-04
            RECHARGE =         946.5190              RECHARGE =       9.7813E-05

            TOTAL IN =       34316.8164              TOTAL IN =       6.6621E-04

          OUT:                                     OUT:
          ----                                     ----
             STORAGE =        9635.2773               STORAGE =           0.0000
       CONSTANT HEAD =       24682.4434         CONSTANT HEAD =       6.6631E-04
            RECHARGE =           0.0000              RECHARGE =           0.0000

           TOTAL OUT =       34317.7188             TOTAL OUT =       6.6631E-04

            IN - OUT =          -0.9023              IN - OUT =      -1.0914E-07

 PERCENT DISCREPANCY =          -0.00     PERCENT DISCREPANCY =          -0.02






         TIME SUMMARY AT END OF TIME STEP    4 IN STRESS PERIOD   82
                    SECONDS     MINUTES      HOURS       DAYS        YEARS
                    -----------------------------------------------------------
   TIME STEP LENGTH  86400.      1440.0      24.000      1.0000     2.73785E-03
 STRESS PERIOD TIME 3.45600E+05  5760.0      96.000      4.0000     1.09514E-02
         TOTAL TIME 9.67680E+06 1.61280E+05  2688.0      112.00     0.30664    
1
1
                            STRESS PERIOD NO.   83, LENGTH =   86400.00    
                            -----------------------------------------------

                              NUMBER OF TIME STEPS =     1

                               MULTIPLIER FOR DELT =     1.000

                            INITIAL TIME STEP SIZE =   86400.00    

 REUSING RECH FROM LAST STRESS PERIOD

 CHD NO.   LAYER   ROW   COL    START HEAD        END HEAD         IFACE           
 ----------------------------------------------------------------------------------
      1      4      1      1       110.4           110.4           0.000    
      2      5      1      1       110.4           110.4           0.000    
      3      4      1      2       110.4           110.4           0.000    
      4      5      1      2       110.4           110.4           0.000    
      5      4      1      3       110.4           110.4           0.000    
      6      5      1      3       110.4           110.4           0.000    
      7      4      1      4       110.4           110.4           0.000    
      8      5      1      4       110.4           110.4           0.000    
      9      4      1      5       110.4           110.4           0.000    
     10      5      1      5       110.4           110.4           0.000    
     11      4      1      6       110.4           110.4           0.000    
     12      5      1      6       110.4           110.4           0.000    
     13      4      1      7       110.4           110.4           0.000    
     14      5      1      7       110.4           110.4           0.000    
     15      4      1      8       110.4           110.4           0.000    
     16      5      1      8       110.4           110.4           0.000    
     17      4      1      9       110.4           110.4           0.000    
     18      5      1      9       110.4           110.4           0.000    
     19      4      1     10       110.4           110.4           0.000    
     20      5      1     10       110.4           110.4           0.000    
     21      4      1     11       110.4           110.4           0.000    
     22      5      1     11       110.4           110.4           0.000    
     23      4      1     12       110.4           110.4           0.000    
     24      5      1     12       110.4           110.4           0.000    
     25      4      1     13       110.4           110.4           0.000    
     26      5      1     13       110.4           110.4           0.000    
     27      4      1     14       110.4           110.4           0.000    
     28      5      1     14       110.4           110.4           0.000    
     29      4      1     15       110.4           110.4           0.000    
     30      5      1     15       110.4           110.4           0.000    
     31      4      1     16       110.4           110.4           0.000    
     32      5      1     16       110.4           110.4           0.000    
     33      4      1     17       110.4           110.4           0.000    
     34      5      1     17       110.4           110.4           0.000    
     35      4     17     17       110.4           110.5           0.000    
     36      5     17     17       110.4           110.5           0.000    
     37      4     18     17       110.4           110.5           0.000    
     38      5     18     17       110.4           110.5           0.000    
     39      4     18     16       110.4           110.5           0.000    
     40      5     18     16       110.4           110.5           0.000    
     41      4     19     16       110.4           110.5           0.000    
     42      5     19     16       110.4           110.5           0.000    
     43      4     19     15       110.4           110.5           0.000    
     44      5     19     15       110.4           110.5           0.000    
     45      4     20     15       110.4           110.5           0.000    
     46      5     20     15       110.4           110.5           0.000    
     47      4     20     14       110.4           110.5           0.000    
     48      5     20     14       110.4           110.5           0.000    
     49      4     20     13       110.4           110.5           0.000    
     50      5     20     13       110.4           110.5           0.000    
     51      4     20     12       110.4           110.5           0.000    
     52      5     20     12       110.4           110.5           0.000    
     53      4     20     11       110.4           110.5           0.000    
     54      5     20     11       110.4           110.5           0.000    
     55      4     21     11       110.4           110.5           0.000    
     56      5     21     11       110.4           110.5           0.000    
     57      4     21     10       110.4           110.5           0.000    
     58      5     21     10       110.4           110.5           0.000    
     59      4     21      9       110.4           110.5           0.000    
     60      5     21      9       110.4           110.5           0.000    
     61      4     21      8       110.4           110.5           0.000    
     62      5     21      8       110.4           110.5           0.000    
     63      4     21      7       110.4           110.4           0.000    
     64      5     21      7       110.4           110.4           0.000    
     65      4     21      6       110.4           110.4           0.000    
     66      5     21      6       110.4           110.4           0.000    
     67      4     21      5       110.4           110.4           0.000    
     68      5     21      5       110.4           110.4           0.000    
     69      4     22      5       110.4           110.4           0.000    
     70      5     22      5       110.4           110.4           0.000    
     71      4     22      4       110.4           110.4           0.000    
     72      5     22      4       110.4           110.4           0.000    
     73      4     22      3       110.4           110.4           0.000    
     74      5     22      3       110.4           110.4           0.000    
     75      4     22      2       110.4           110.4           0.000    
     76      5     22      2       110.4           110.4           0.000    
     77      4     22      1       110.4           110.4           0.000    
     78      5     22      1       110.4           110.4           0.000    


     78 TIME-VARIANT SPECIFIED-HEAD CELLS

 SOLVING FOR HEAD 


     3 CALLS TO PCG ROUTINE FOR TIME STEP   1 IN STRESS PERIOD   83
    49 TOTAL ITERATIONS

 MAXIMUM HEAD CHANGE FOR EACH ITERATION (1 INDICATES THE FIRST INNER ITERATION):

    HEAD CHANGE    HEAD CHANGE    HEAD CHANGE    HEAD CHANGE    HEAD CHANGE 
   LAYER,ROW,COL  LAYER,ROW,COL  LAYER,ROW,COL  LAYER,ROW,COL  LAYER,ROW,COL
 ---------------------------------------------------------------------------
  1  0.1408      0 -0.9372E-01  0  0.8142E-01  0  0.6417E-01  0  0.8904E-01
   (  5, 21,  2)  (  5, 17,  1)  (  5, 16,  2)  (  5, 17,  1)  (  5, 19,  1)
  0  0.5167E-01  0 -0.4583E-01  0 -0.3378E-01  0  0.2974E-01  0 -0.1745E-01
   (  5, 20,  1)  (  5, 18,  1)  (  5, 19,  1)  (  5, 18,  1)  (  5, 18,  4)
  0  0.1423E-01  0 -0.1264E-01  0  0.6296E-02  0  0.6290E-02  0 -0.3989E-02
   (  5, 17,  3)  (  5, 16,  3)  (  5, 15,  1)  (  5, 12,  5)  (  5, 19,  1)
  0  0.3383E-02  0 -0.3611E-02  0 -0.1967E-02  0 -0.2528E-02  0 -0.8388E-03
   (  5, 18,  1)  (  5, 18,  2)  (  5, 16,  1)  (  5, 19,  3)  (  5, 17,  2)
  0  0.7933E-03  0  0.6081E-03  0 -0.4952E-03  0  0.4114E-03  0  0.2906E-03
   (  5, 17,  5)  (  5, 16,  2)  (  5, 16,  1)  (  5, 19,  2)  (  5, 18,  5)
  0  0.2144E-03  0 -0.1742E-03  0  0.1409E-03  0  0.9591E-04  0 -0.7024E-04
   (  5, 20,  3)  (  5, 19,  2)  (  5, 18,  1)  (  5,  6,  1)  (  5,  6,  1)
  1  0.6729E-04  0 -0.5974E-04  0  0.7494E-04  0 -0.7811E-04  0  0.4155E-04
   (  5,  6,  1)  (  5, 16,  1)  (  5, 17,  2)  (  5,  6,  1)  (  5, 14,  4)
  0 -0.3662E-04  0  0.2212E-04  0  0.2249E-04  0  0.1394E-04  0 -0.1292E-04
   (  5, 13,  3)  (  5, 14,  2)  (  5, 19,  1)  (  5, 16,  4)  (  5, 17,  5)
  0  0.6066E-05  0  0.5328E-05  0 -0.4469E-05  0  0.3831E-05  0  0.2521E-05
   (  5, 12,  5)  (  5, 17,  1)  (  5, 15,  1)  (  5, 16,  2)  (  5, 19,  3)
  0  0.1974E-05  0 -0.1552E-05  0  0.9932E-06  1 -0.7586E-06
   (  5, 16,  1)  (  5, 14,  5)  (  5, 15,  5)  (  5, 12,  6)

 MAXIMUM RESIDUAL FOR EACH ITERATION (1 INDICATES THE FIRST INNER ITERATION):

    RESIDUAL       RESIDUAL       RESIDUAL       RESIDUAL       RESIDUAL    
   LAYER,ROW,COL  LAYER,ROW,COL  LAYER,ROW,COL  LAYER,ROW,COL  LAYER,ROW,COL
 ---------------------------------------------------------------------------
  1 -0.4182E-02  0 -0.3776E-02  0 -0.3401E-02  0 -0.2891E-02  0 -0.2300E-02
   (  3, 17, 17)  (  3, 17, 17)  (  3, 17, 17)  (  3, 17, 17)  (  3, 17, 17)
  0 -0.1724E-02  0 -0.1156E-02  0 -0.7036E-03  0 -0.4196E-03  0 -0.2662E-03
   (  3, 17, 17)  (  3, 17, 17)  (  3, 17, 17)  (  3, 20, 11)  (  3, 20, 11)
  0 -0.1785E-03  0 -0.1484E-03  0 -0.1407E-03  0 -0.1145E-03  0 -0.8945E-04
   (  4, 16, 17)  (  4, 16, 17)  (  4, 16, 17)  (  4, 16, 17)  (  4, 16, 17)
  0 -0.7511E-04  0 -0.6135E-04  0 -0.4521E-04  0 -0.3210E-04  0 -0.2202E-04
   (  4, 16, 17)  (  4, 16, 17)  (  4, 16, 17)  (  4, 16, 17)  (  4, 16, 17)
  0 -0.1542E-04  0 -0.1229E-04  0 -0.1042E-04  0 -0.8982E-05  0 -0.5648E-05
   (  4, 16, 17)  (  4, 16, 17)  (  4, 16, 17)  (  4, 16, 17)  (  4, 16, 17)
  0  0.3441E-05  0  0.2425E-05  0  0.1731E-05  0  0.8492E-06  0 -0.6065E-06
   (  3, 21,  6)  (  3, 21,  6)  (  3, 21,  6)  (  3, 21,  6)  (  3, 17, 17)
  1 -0.9339E-06  0 -0.8793E-06  0 -0.7581E-06  0 -0.5529E-06  0 -0.4345E-06
   (  3, 17, 17)  (  3, 17, 17)  (  3, 17, 17)  (  3, 17, 17)  (  3, 17, 17)
  0 -0.3640E-06  0 -0.3082E-06  0 -0.2683E-06  0 -0.2321E-06  0 -0.1832E-06
   (  3, 17, 17)  (  3, 17, 17)  (  3, 17, 17)  (  3, 17, 17)  (  3, 17, 17)
  0 -0.1477E-06  0 -0.1284E-06  0 -0.1178E-06  0 -0.9105E-07  0 -0.7068E-07
   (  3, 17, 17)  (  3, 17, 17)  (  3, 17, 17)  (  3, 17, 17)  (  3, 17, 17)
  0 -0.5580E-07  0 -0.3743E-07  0 -0.2602E-07  1 -0.2448E-07
   (  3, 17, 17)  (  3, 17, 17)  (  3, 17, 17)  (  3, 17, 17)



 OUTPUT CONTROL FOR STRESS PERIOD   83   TIME STEP    1
    SAVE HEAD FOR ALL LAYERS
    SAVE DRAWDOWN FOR ALL LAYERS
    SAVE BUDGET
    PRINT BUDGET
 UBDSV1 SAVING "         STORAGE" ON UNIT   9 AT TIME STEP  1, STRESS PERIOD  83
 UBDSV2 SAVING "   CONSTANT HEAD" ON UNIT   9 AT TIME STEP  1, STRESS PERIOD  83
 UBDSV1 SAVING "FLOW RIGHT FACE " ON UNIT   9 AT TIME STEP  1, STRESS PERIOD  83
 UBDSV1 SAVING "FLOW FRONT FACE " ON UNIT   9 AT TIME STEP  1, STRESS PERIOD  83
 UBDSV1 SAVING "FLOW LOWER FACE " ON UNIT   9 AT TIME STEP  1, STRESS PERIOD  83
 UBDSV3 SAVING "        RECHARGE" ON UNIT   9 AT TIME STEP  1, STRESS PERIOD  83

 HEAD WILL BE SAVED ON UNIT   37 AT END OF TIME STEP    1, STRESS PERIOD   83

 DRAWDOWN WILL BE SAVED ON UNIT   38 AT END OF TIME STEP    1, STRESS PERIOD   83
1
  VOLUMETRIC BUDGET FOR ENTIRE MODEL AT END OF TIME STEP    1, STRESS PERIOD  83
  ------------------------------------------------------------------------------

     CUMULATIVE VOLUMES      L**3       RATES FOR THIS TIME STEP      L**3/T
     ------------------                 ------------------------

           IN:                                      IN:
           ---                                      ---
             STORAGE =       10995.2148               STORAGE =           0.0000
       CONSTANT HEAD =       22488.6699         CONSTANT HEAD =       1.3147E-03
            RECHARGE =         954.9701              RECHARGE =       9.7813E-05

            TOTAL IN =       34438.8516              TOTAL IN =       1.4125E-03

          OUT:                                     OUT:
          ----                                     ----
             STORAGE =        9751.0840               STORAGE =       1.3404E-03
       CONSTANT HEAD =       24688.6836         CONSTANT HEAD =       7.2227E-05
            RECHARGE =           0.0000              RECHARGE =           0.0000

           TOTAL OUT =       34439.7656             TOTAL OUT =       1.4126E-03

            IN - OUT =          -0.9141              IN - OUT =      -9.7323E-08

 PERCENT DISCREPANCY =          -0.00     PERCENT DISCREPANCY =          -0.01






         TIME SUMMARY AT END OF TIME STEP    1 IN STRESS PERIOD   83
                    SECONDS     MINUTES      HOURS       DAYS        YEARS
                    -----------------------------------------------------------
   TIME STEP LENGTH  86400.      1440.0      24.000      1.0000     2.73785E-03
 STRESS PERIOD TIME  86400.      1440.0      24.000      1.0000     2.73785E-03
         TOTAL TIME 9.76320E+06 1.62720E+05  2712.0      113.00     0.30938    
1
1
                            STRESS PERIOD NO.   84, LENGTH =   86400.00    
                            -----------------------------------------------

                              NUMBER OF TIME STEPS =     1

                               MULTIPLIER FOR DELT =     1.000

                            INITIAL TIME STEP SIZE =   86400.00    

 REUSING RECH FROM LAST STRESS PERIOD

 CHD NO.   LAYER   ROW   COL    START HEAD        END HEAD         IFACE           
 ----------------------------------------------------------------------------------
      1      4      1      1       110.4           110.4           0.000    
      2      5      1      1       110.4           110.4           0.000    
      3      4      1      2       110.4           110.4           0.000    
      4      5      1      2       110.4           110.4           0.000    
      5      4      1      3       110.4           110.4           0.000    
      6      5      1      3       110.4           110.4           0.000    
      7      4      1      4       110.4           110.4           0.000    
      8      5      1      4       110.4           110.4           0.000    
      9      4      1      5       110.4           110.4           0.000    
     10      5      1      5       110.4           110.4           0.000    
     11      4      1      6       110.4           110.4           0.000    
     12      5      1      6       110.4           110.4           0.000    
     13      4      1      7       110.4           110.4           0.000    
     14      5      1      7       110.4           110.4           0.000    
     15      4      1      8       110.4           110.4           0.000    
     16      5      1      8       110.4           110.4           0.000    
     17      4      1      9       110.4           110.4           0.000    
     18      5      1      9       110.4           110.4           0.000    
     19      4      1     10       110.4           110.4           0.000    
     20      5      1     10       110.4           110.4           0.000    
     21      4      1     11       110.4           110.4           0.000    
     22      5      1     11       110.4           110.4           0.000    
     23      4      1     12       110.4           110.4           0.000    
     24      5      1     12       110.4           110.4           0.000    
     25      4      1     13       110.4           110.4           0.000    
     26      5      1     13       110.4           110.4           0.000    
     27      4      1     14       110.4           110.4           0.000    
     28      5      1     14       110.4           110.4           0.000    
     29      4      1     15       110.4           110.4           0.000    
     30      5      1     15       110.4           110.4           0.000    
     31      4      1     16       110.4           110.4           0.000    
     32      5      1     16       110.4           110.4           0.000    
     33      4      1     17       110.4           110.4           0.000    
     34      5      1     17       110.4           110.4           0.000    
     35      4     17     17       110.5           110.5           0.000    
     36      5     17     17       110.5           110.5           0.000    
     37      4     18     17       110.5           110.5           0.000    
     38      5     18     17       110.5           110.5           0.000    
     39      4     18     16       110.5           110.5           0.000    
     40      5     18     16       110.5           110.5           0.000    
     41      4     19     16       110.5           110.5           0.000    
     42      5     19     16       110.5           110.5           0.000    
     43      4     19     15       110.5           110.5           0.000    
     44      5     19     15       110.5           110.5           0.000    
     45      4     20     15       110.5           110.5           0.000    
     46      5     20     15       110.5           110.5           0.000    
     47      4     20     14       110.5           110.5           0.000    
     48      5     20     14       110.5           110.5           0.000    
     49      4     20     13       110.5           110.5           0.000    
     50      5     20     13       110.5           110.5           0.000    
     51      4     20     12       110.5           110.5           0.000    
     52      5     20     12       110.5           110.5           0.000    
     53      4     20     11       110.5           110.5           0.000    
     54      5     20     11       110.5           110.5           0.000    
     55      4     21     11       110.5           110.5           0.000    
     56      5     21     11       110.5           110.5           0.000    
     57      4     21     10       110.5           110.5           0.000    
     58      5     21     10       110.5           110.5           0.000    
     59      4     21      9       110.5           110.5           0.000    
     60      5     21      9       110.5           110.5           0.000    
     61      4     21      8       110.5           110.5           0.000    
     62      5     21      8       110.5           110.5           0.000    
     63      4     21      7       110.4           110.5           0.000    
     64      5     21      7       110.4           110.5           0.000    
     65      4     21      6       110.4           110.5           0.000    
     66      5     21      6       110.4           110.5           0.000    
     67      4     21      5       110.4           110.5           0.000    
     68      5     21      5       110.4           110.5           0.000    
     69      4     22      5       110.4           110.5           0.000    
     70      5     22      5       110.4           110.5           0.000    
     71      4     22      4       110.4           110.5           0.000    
     72      5     22      4       110.4           110.5           0.000    
     73      4     22      3       110.4           110.5           0.000    
     74      5     22      3       110.4           110.5           0.000    
     75      4     22      2       110.4           110.5           0.000    
     76      5     22      2       110.4           110.5           0.000    
     77      4     22      1       110.4           110.5           0.000    
     78      5     22      1       110.4           110.5           0.000    


     78 TIME-VARIANT SPECIFIED-HEAD CELLS

 SOLVING FOR HEAD 


     3 CALLS TO PCG ROUTINE FOR TIME STEP   1 IN STRESS PERIOD   84
    49 TOTAL ITERATIONS

 MAXIMUM HEAD CHANGE FOR EACH ITERATION (1 INDICATES THE FIRST INNER ITERATION):

    HEAD CHANGE    HEAD CHANGE    HEAD CHANGE    HEAD CHANGE    HEAD CHANGE 
   LAYER,ROW,COL  LAYER,ROW,COL  LAYER,ROW,COL  LAYER,ROW,COL  LAYER,ROW,COL
 ---------------------------------------------------------------------------
  1  0.5632E-01  0 -0.3651E-01  0  0.3159E-01  0 -0.2452E-01  0  0.3151E-01
   (  5, 21,  2)  (  5, 17,  1)  (  5, 16,  2)  (  5, 21,  2)  (  5, 19,  1)
  0  0.1798E-01  0 -0.1567E-01  0 -0.1111E-01  0  0.9467E-02  0 -0.5670E-02
   (  5, 17,  4)  (  5, 18,  1)  (  5, 17,  3)  (  5, 18,  1)  (  5, 18,  4)
  0  0.5162E-02  0 -0.2565E-02  0  0.2616E-02  0  0.2071E-02  0  0.1417E-02
   (  5, 17,  3)  (  5, 16,  2)  (  5, 14,  1)  (  5, 12,  5)  (  5, 19,  3)
  0 -0.1359E-02  0  0.7620E-03  0 -0.7125E-03  0 -0.7821E-03  0 -0.4204E-03
   (  5, 18,  2)  (  5, 18,  1)  (  5, 16,  1)  (  5, 19,  3)  (  5, 17,  2)
  0  0.2274E-03  0 -0.1879E-03  0 -0.1693E-03  0  0.1797E-03  0  0.1023E-03
   (  5, 16,  1)  (  5, 20,  3)  (  5, 19,  1)  (  5, 19,  2)  (  5, 18,  5)
  0  0.5710E-04  0  0.4153E-04  0 -0.3802E-04  0  0.3712E-04  0 -0.2069E-04
   (  5, 20,  3)  (  5, 14,  2)  (  5, 14,  1)  (  5, 16,  1)  (  5, 18,  1)
  1  0.2416E-04  0 -0.4171E-04  0  0.3286E-04  0 -0.2337E-04  0 -0.2072E-04
   (  5, 18,  1)  (  5, 16,  1)  (  5, 14,  1)  (  5, 20,  1)  (  5, 18,  3)
  0 -0.1303E-04  0 -0.7306E-05  0  0.7041E-05  0 -0.4832E-05  0  0.3960E-05
   (  5, 16,  2)  (  5, 20,  1)  (  5, 20,  2)  (  5, 20,  1)  (  5, 20,  1)
  0  0.3011E-05  0 -0.1906E-05  0  0.2075E-05  0 -0.1437E-05  0  0.1046E-05
   (  5, 14,  1)  (  5, 17,  3)  (  5, 14,  4)  (  5, 15,  4)  (  5, 15,  3)
  0  0.1009E-05  0 -0.1150E-05  0  0.5339E-06  1  0.3187E-06
   (  5, 18,  1)  (  5, 19,  3)  (  5, 20,  3)  (  5, 17,  1)

 MAXIMUM RESIDUAL FOR EACH ITERATION (1 INDICATES THE FIRST INNER ITERATION):

    RESIDUAL       RESIDUAL       RESIDUAL       RESIDUAL       RESIDUAL    
   LAYER,ROW,COL  LAYER,ROW,COL  LAYER,ROW,COL  LAYER,ROW,COL  LAYER,ROW,COL
 ---------------------------------------------------------------------------
  1 -0.1048E-02  0 -0.9206E-03  0 -0.8070E-03  0 -0.6687E-03  0 -0.5148E-03
   (  3, 17, 17)  (  3, 17, 17)  (  3, 17, 17)  (  3, 17, 17)  (  3, 17, 17)
  0 -0.3733E-03  0 -0.2374E-03  0 -0.1347E-03  0 -0.7436E-04  0  0.5397E-04
   (  3, 17, 17)  (  3, 17, 17)  (  3, 17, 17)  (  3, 20, 11)  (  4, 21,  2)
  0  0.4711E-04  0  0.4531E-04  0 -0.3465E-04  0 -0.2714E-04  0 -0.2039E-04
   (  4, 21,  2)  (  4, 21,  2)  (  4, 16, 17)  (  4, 16, 17)  (  4, 16, 17)
  0 -0.1462E-04  0 -0.1282E-04  0 -0.8869E-05  0  0.6940E-05  0  0.5354E-05
   (  4, 16, 17)  (  4, 16, 17)  (  4, 16, 17)  (  3, 21,  6)  (  3, 21,  6)
  0  0.5089E-05  0  0.3927E-05  0  0.3410E-05  0  0.2585E-05  0  0.1679E-05
   (  3, 21,  6)  (  3, 21,  6)  (  3, 21,  6)  (  3, 21,  6)  (  3, 21,  6)
  0  0.1026E-05  0  0.5359E-06  0  0.3430E-06  0 -0.2421E-06  0 -0.2046E-06
   (  3, 21,  6)  (  3, 21,  6)  (  3, 21,  6)  (  5, 15, 17)  (  5, 15, 17)
  1 -0.2001E-06  0 -0.1350E-06  0 -0.1053E-06  0 -0.9235E-07  0  0.8675E-07
   (  5, 15, 17)  (  5, 15, 17)  (  5, 15, 17)  (  4, 14,  2)  (  4, 18, 14)
  0  0.8565E-07  0  0.7891E-07  0  0.5768E-07  0  0.3920E-07  0  0.2236E-07
   (  4, 18, 14)  (  4, 18, 14)  (  4, 18, 14)  (  4, 18, 14)  (  4, 17, 15)
  0  0.1654E-07  0  0.1435E-07  0  0.1228E-07  0  0.9612E-08  0  0.7940E-08
   (  4, 17, 15)  (  2, 17, 17)  (  2, 17, 17)  (  2, 17, 17)  (  2, 17, 17)
  0  0.6616E-08  0 -0.5223E-08  0 -0.3998E-08  1 -0.3504E-08
   (  2, 17, 17)  (  4, 18, 14)  (  4, 18, 14)  (  4, 18, 14)



 OUTPUT CONTROL FOR STRESS PERIOD   84   TIME STEP    1
    SAVE HEAD FOR ALL LAYERS
    SAVE DRAWDOWN FOR ALL LAYERS
    SAVE BUDGET
    PRINT BUDGET
 UBDSV1 SAVING "         STORAGE" ON UNIT   9 AT TIME STEP  1, STRESS PERIOD  84
 UBDSV2 SAVING "   CONSTANT HEAD" ON UNIT   9 AT TIME STEP  1, STRESS PERIOD  84
 UBDSV1 SAVING "FLOW RIGHT FACE " ON UNIT   9 AT TIME STEP  1, STRESS PERIOD  84
 UBDSV1 SAVING "FLOW FRONT FACE " ON UNIT   9 AT TIME STEP  1, STRESS PERIOD  84
 UBDSV1 SAVING "FLOW LOWER FACE " ON UNIT   9 AT TIME STEP  1, STRESS PERIOD  84
 UBDSV3 SAVING "        RECHARGE" ON UNIT   9 AT TIME STEP  1, STRESS PERIOD  84

 HEAD WILL BE SAVED ON UNIT   37 AT END OF TIME STEP    1, STRESS PERIOD   84

 DRAWDOWN WILL BE SAVED ON UNIT   38 AT END OF TIME STEP    1, STRESS PERIOD   84
1
  VOLUMETRIC BUDGET FOR ENTIRE MODEL AT END OF TIME STEP    1, STRESS PERIOD  84
  ------------------------------------------------------------------------------

     CUMULATIVE VOLUMES      L**3       RATES FOR THIS TIME STEP      L**3/T
     ------------------                 ------------------------

           IN:                                      IN:
           ---                                      ---
             STORAGE =       10995.2148               STORAGE =           0.0000
       CONSTANT HEAD =       22578.8457         CONSTANT HEAD =       1.0437E-03
            RECHARGE =         963.4211              RECHARGE =       9.7813E-05

            TOTAL IN =       34537.4844              TOTAL IN =       1.1415E-03

          OUT:                                     OUT:
          ----                                     ----
             STORAGE =        9845.9785               STORAGE =       1.0983E-03
       CONSTANT HEAD =       24692.4238         CONSTANT HEAD =       4.3290E-05
            RECHARGE =           0.0000              RECHARGE =           0.0000

           TOTAL OUT =       34538.4023             TOTAL OUT =       1.1416E-03

            IN - OUT =          -0.9180              IN - OUT =      -8.6962E-08

 PERCENT DISCREPANCY =          -0.00     PERCENT DISCREPANCY =          -0.01






         TIME SUMMARY AT END OF TIME STEP    1 IN STRESS PERIOD   84
                    SECONDS     MINUTES      HOURS       DAYS        YEARS
                    -----------------------------------------------------------
   TIME STEP LENGTH  86400.      1440.0      24.000      1.0000     2.73785E-03
 STRESS PERIOD TIME  86400.      1440.0      24.000      1.0000     2.73785E-03
         TOTAL TIME 9.84960E+06 1.64160E+05  2736.0      114.00     0.31211    
1
1
                            STRESS PERIOD NO.   85, LENGTH =   86400.00    
                            -----------------------------------------------

                              NUMBER OF TIME STEPS =     1

                               MULTIPLIER FOR DELT =     1.000

                            INITIAL TIME STEP SIZE =   86400.00    

 REUSING RECH FROM LAST STRESS PERIOD

 CHD NO.   LAYER   ROW   COL    START HEAD        END HEAD         IFACE           
 ----------------------------------------------------------------------------------
      1      4      1      1       110.4           110.4           0.000    
      2      5      1      1       110.4           110.4           0.000    
      3      4      1      2       110.4           110.4           0.000    
      4      5      1      2       110.4           110.4           0.000    
      5      4      1      3       110.4           110.4           0.000    
      6      5      1      3       110.4           110.4           0.000    
      7      4      1      4       110.4           110.4           0.000    
      8      5      1      4       110.4           110.4           0.000    
      9      4      1      5       110.4           110.4           0.000    
     10      5      1      5       110.4           110.4           0.000    
     11      4      1      6       110.4           110.4           0.000    
     12      5      1      6       110.4           110.4           0.000    
     13      4      1      7       110.4           110.4           0.000    
     14      5      1      7       110.4           110.4           0.000    
     15      4      1      8       110.4           110.4           0.000    
     16      5      1      8       110.4           110.4           0.000    
     17      4      1      9       110.4           110.4           0.000    
     18      5      1      9       110.4           110.4           0.000    
     19      4      1     10       110.4           110.4           0.000    
     20      5      1     10       110.4           110.4           0.000    
     21      4      1     11       110.4           110.4           0.000    
     22      5      1     11       110.4           110.4           0.000    
     23      4      1     12       110.4           110.4           0.000    
     24      5      1     12       110.4           110.4           0.000    
     25      4      1     13       110.4           110.4           0.000    
     26      5      1     13       110.4           110.4           0.000    
     27      4      1     14       110.4           110.4           0.000    
     28      5      1     14       110.4           110.4           0.000    
     29      4      1     15       110.4           110.4           0.000    
     30      5      1     15       110.4           110.4           0.000    
     31      4      1     16       110.4           110.4           0.000    
     32      5      1     16       110.4           110.4           0.000    
     33      4      1     17       110.4           110.4           0.000    
     34      5      1     17       110.4           110.4           0.000    
     35      4     17     17       110.5           110.4           0.000    
     36      5     17     17       110.5           110.4           0.000    
     37      4     18     17       110.5           110.4           0.000    
     38      5     18     17       110.5           110.4           0.000    
     39      4     18     16       110.5           110.4           0.000    
     40      5     18     16       110.5           110.4           0.000    
     41      4     19     16       110.5           110.4           0.000    
     42      5     19     16       110.5           110.4           0.000    
     43      4     19     15       110.5           110.4           0.000    
     44      5     19     15       110.5           110.4           0.000    
     45      4     20     15       110.5           110.4           0.000    
     46      5     20     15       110.5           110.4           0.000    
     47      4     20     14       110.5           110.4           0.000    
     48      5     20     14       110.5           110.4           0.000    
     49      4     20     13       110.5           110.4           0.000    
     50      5     20     13       110.5           110.4           0.000    
     51      4     20     12       110.5           110.4           0.000    
     52      5     20     12       110.5           110.4           0.000    
     53      4     20     11       110.5           110.4           0.000    
     54      5     20     11       110.5           110.4           0.000    
     55      4     21     11       110.5           110.4           0.000    
     56      5     21     11       110.5           110.4           0.000    
     57      4     21     10       110.5           110.4           0.000    
     58      5     21     10       110.5           110.4           0.000    
     59      4     21      9       110.5           110.4           0.000    
     60      5     21      9       110.5           110.4           0.000    
     61      4     21      8       110.5           110.4           0.000    
     62      5     21      8       110.5           110.4           0.000    
     63      4     21      7       110.5           110.4           0.000    
     64      5     21      7       110.5           110.4           0.000    
     65      4     21      6       110.5           110.4           0.000    
     66      5     21      6       110.5           110.4           0.000    
     67      4     21      5       110.5           110.4           0.000    
     68      5     21      5       110.5           110.4           0.000    
     69      4     22      5       110.5           110.4           0.000    
     70      5     22      5       110.5           110.4           0.000    
     71      4     22      4       110.5           110.4           0.000    
     72      5     22      4       110.5           110.4           0.000    
     73      4     22      3       110.5           110.4           0.000    
     74      5     22      3       110.5           110.4           0.000    
     75      4     22      2       110.5           110.4           0.000    
     76      5     22      2       110.5           110.4           0.000    
     77      4     22      1       110.5           110.4           0.000    
     78      5     22      1       110.5           110.4           0.000    


     78 TIME-VARIANT SPECIFIED-HEAD CELLS

 SOLVING FOR HEAD 


     3 CALLS TO PCG ROUTINE FOR TIME STEP   1 IN STRESS PERIOD   85
    48 TOTAL ITERATIONS

 MAXIMUM HEAD CHANGE FOR EACH ITERATION (1 INDICATES THE FIRST INNER ITERATION):

    HEAD CHANGE    HEAD CHANGE    HEAD CHANGE    HEAD CHANGE    HEAD CHANGE 
   LAYER,ROW,COL  LAYER,ROW,COL  LAYER,ROW,COL  LAYER,ROW,COL  LAYER,ROW,COL
 ---------------------------------------------------------------------------
  1 -0.1092      0  0.7310E-01  0 -0.6265E-01  0 -0.4925E-01  0 -0.6986E-01
   (  5, 21,  2)  (  5, 17,  1)  (  5, 16,  2)  (  5, 17,  1)  (  5, 19,  1)
  0 -0.3965E-01  0  0.3593E-01  0  0.2655E-01  0 -0.2293E-01  0  0.1356E-01
   (  5, 20,  1)  (  5, 18,  1)  (  5, 19,  1)  (  5, 18,  1)  (  5, 18,  4)
  0 -0.9965E-02  0 -0.7081E-02  0  0.7659E-02  0 -0.5096E-02  0 -0.3353E-02
   (  5, 17,  3)  (  5, 14,  1)  (  5, 16,  3)  (  5, 12,  5)  (  5, 19,  3)
  0  0.3276E-02  0 -0.2196E-02  0  0.1778E-02  0  0.1969E-02  0 -0.6729E-03
   (  5, 18,  2)  (  5, 18,  1)  (  5, 16,  1)  (  5, 19,  3)  (  5, 18,  3)
  0  0.7290E-03  0 -0.6265E-03  0  0.4965E-03  0 -0.4259E-03  0 -0.2279E-03
   (  5, 17,  2)  (  5, 16,  1)  (  5, 19,  1)  (  5, 19,  2)  (  5, 18,  5)
  0 -0.1670E-03  0 -0.1304E-03  0 -0.7877E-04  0  0.7518E-04  0 -0.5197E-04
   (  5, 20,  3)  (  5, 14,  2)  (  5, 18,  1)  (  5, 18,  1)  (  5, 17,  1)
  1  0.4292E-04  0 -0.3481E-04  0  0.4602E-04  0 -0.3624E-04  0  0.3361E-04
   (  5, 16,  1)  (  5, 18,  1)  (  5, 19,  1)  (  5, 19,  2)  (  5, 18,  3)
  0 -0.2088E-04  0 -0.1660E-04  0  0.1134E-04  0 -0.8935E-05  0 -0.5355E-05
   (  5, 17,  3)  (  5, 13,  4)  (  5, 14,  4)  (  5, 12,  5)  (  5, 18,  2)
  0  0.6290E-05  0  0.5115E-05  0 -0.3433E-05  0 -0.2764E-05  0 -0.1849E-05
   (  5, 16,  1)  (  5, 16,  4)  (  5, 20,  1)  (  5, 19,  2)  (  5, 16,  1)
  0  0.1468E-05  0 -0.9481E-06  1  0.7424E-06
   (  5, 17,  1)  (  5, 18,  2)  (  5, 18,  1)

 MAXIMUM RESIDUAL FOR EACH ITERATION (1 INDICATES THE FIRST INNER ITERATION):

    RESIDUAL       RESIDUAL       RESIDUAL       RESIDUAL       RESIDUAL    
   LAYER,ROW,COL  LAYER,ROW,COL  LAYER,ROW,COL  LAYER,ROW,COL  LAYER,ROW,COL
 ---------------------------------------------------------------------------
  1  0.3339E-02  0  0.3021E-02  0  0.2728E-02  0  0.2325E-02  0  0.1852E-02
   (  3, 17, 17)  (  3, 17, 17)  (  3, 17, 17)  (  3, 17, 17)  (  3, 17, 17)
  0  0.1388E-02  0  0.9307E-03  0  0.5703E-03  0  0.3464E-03  0  0.2222E-03
   (  3, 17, 17)  (  3, 17, 17)  (  3, 17, 17)  (  3, 20, 11)  (  3, 20, 11)
  0  0.1481E-03  0  0.1273E-03  0  0.1144E-03  0  0.9296E-04  0  0.7250E-04
   (  3, 20, 11)  (  4, 16, 17)  (  4, 16, 17)  (  4, 16, 17)  (  4, 16, 17)
  0  0.5904E-04  0  0.4985E-04  0  0.3681E-04  0  0.2614E-04  0  0.1798E-04
   (  4, 16, 17)  (  4, 16, 17)  (  4, 16, 17)  (  4, 16, 17)  (  4, 16, 17)
  0  0.1426E-04  0  0.1218E-04  0  0.9795E-05  0  0.7448E-05  0  0.4663E-05
   (  4, 16, 17)  (  4, 16, 17)  (  4, 16, 17)  (  4, 16, 17)  (  4, 16, 17)
  0  0.2817E-05  0  0.1649E-05  0  0.1389E-05  0  0.7069E-06  0  0.5694E-06
   (  4, 16, 17)  (  4, 16, 17)  (  4, 16, 17)  (  4, 16, 17)  (  3, 17, 17)
  1 -0.5984E-06  0 -0.4778E-06  0 -0.3888E-06  0  0.3439E-06  0  0.2912E-06
   (  3, 21,  5)  (  3, 21,  6)  (  3, 21,  6)  (  4, 16, 17)  (  4, 16, 17)
  0  0.2392E-06  0  0.2076E-06  0  0.1535E-06  0  0.1172E-06  0  0.1007E-06
   (  4, 16, 17)  (  4, 16, 17)  (  4, 16, 17)  (  4, 16, 17)  (  4, 16, 17)
  0  0.8898E-07  0  0.6850E-07  0  0.5496E-07  0  0.4095E-07  0  0.3172E-07
   (  4, 16, 17)  (  4, 16, 17)  (  4, 16, 17)  (  4, 16, 17)  (  4, 16, 17)
  0  0.2565E-07  0  0.2317E-07  1  0.2286E-07
   (  4, 16, 17)  (  4, 16, 17)  (  4, 16, 17)



 OUTPUT CONTROL FOR STRESS PERIOD   85   TIME STEP    1
    SAVE HEAD FOR ALL LAYERS
    SAVE DRAWDOWN FOR ALL LAYERS
    SAVE BUDGET
    PRINT BUDGET
 UBDSV1 SAVING "         STORAGE" ON UNIT   9 AT TIME STEP  1, STRESS PERIOD  85
 UBDSV2 SAVING "   CONSTANT HEAD" ON UNIT   9 AT TIME STEP  1, STRESS PERIOD  85
 UBDSV1 SAVING "FLOW RIGHT FACE " ON UNIT   9 AT TIME STEP  1, STRESS PERIOD  85
 UBDSV1 SAVING "FLOW FRONT FACE " ON UNIT   9 AT TIME STEP  1, STRESS PERIOD  85
 UBDSV1 SAVING "FLOW LOWER FACE " ON UNIT   9 AT TIME STEP  1, STRESS PERIOD  85
 UBDSV3 SAVING "        RECHARGE" ON UNIT   9 AT TIME STEP  1, STRESS PERIOD  85

 HEAD WILL BE SAVED ON UNIT   37 AT END OF TIME STEP    1, STRESS PERIOD   85

 DRAWDOWN WILL BE SAVED ON UNIT   38 AT END OF TIME STEP    1, STRESS PERIOD   85
1
  VOLUMETRIC BUDGET FOR ENTIRE MODEL AT END OF TIME STEP    1, STRESS PERIOD  85
  ------------------------------------------------------------------------------

     CUMULATIVE VOLUMES      L**3       RATES FOR THIS TIME STEP      L**3/T
     ------------------                 ------------------------

           IN:                                      IN:
           ---                                      ---
             STORAGE =       11058.0088               STORAGE =       7.2678E-04
       CONSTANT HEAD =       22580.0684         CONSTANT HEAD =       1.4158E-05
            RECHARGE =         971.8722              RECHARGE =       9.7813E-05

            TOTAL IN =       34609.9492              TOTAL IN =       8.3875E-04

          OUT:                                     OUT:
          ----                                     ----
             STORAGE =        9845.9785               STORAGE =           0.0000
       CONSTANT HEAD =       24764.9004         CONSTANT HEAD =       8.3885E-04
            RECHARGE =           0.0000              RECHARGE =           0.0000

           TOTAL OUT =       34610.8789             TOTAL OUT =       8.3885E-04

            IN - OUT =          -0.9297              IN - OUT =      -1.0122E-07

 PERCENT DISCREPANCY =          -0.00     PERCENT DISCREPANCY =          -0.01






         TIME SUMMARY AT END OF TIME STEP    1 IN STRESS PERIOD   85
                    SECONDS     MINUTES      HOURS       DAYS        YEARS
                    -----------------------------------------------------------
   TIME STEP LENGTH  86400.      1440.0      24.000      1.0000     2.73785E-03
 STRESS PERIOD TIME  86400.      1440.0      24.000      1.0000     2.73785E-03
         TOTAL TIME 9.93600E+06 1.65600E+05  2760.0      115.00     0.31485    
1
1
                            STRESS PERIOD NO.   86, LENGTH =   86400.00    
                            -----------------------------------------------

                              NUMBER OF TIME STEPS =     1

                               MULTIPLIER FOR DELT =     1.000

                            INITIAL TIME STEP SIZE =   86400.00    

 REUSING RECH FROM LAST STRESS PERIOD

 CHD NO.   LAYER   ROW   COL    START HEAD        END HEAD         IFACE           
 ----------------------------------------------------------------------------------
      1      4      1      1       110.4           110.4           0.000    
      2      5      1      1       110.4           110.4           0.000    
      3      4      1      2       110.4           110.4           0.000    
      4      5      1      2       110.4           110.4           0.000    
      5      4      1      3       110.4           110.4           0.000    
      6      5      1      3       110.4           110.4           0.000    
      7      4      1      4       110.4           110.4           0.000    
      8      5      1      4       110.4           110.4           0.000    
      9      4      1      5       110.4           110.4           0.000    
     10      5      1      5       110.4           110.4           0.000    
     11      4      1      6       110.4           110.4           0.000    
     12      5      1      6       110.4           110.4           0.000    
     13      4      1      7       110.4           110.4           0.000    
     14      5      1      7       110.4           110.4           0.000    
     15      4      1      8       110.4           110.4           0.000    
     16      5      1      8       110.4           110.4           0.000    
     17      4      1      9       110.4           110.4           0.000    
     18      5      1      9       110.4           110.4           0.000    
     19      4      1     10       110.4           110.4           0.000    
     20      5      1     10       110.4           110.4           0.000    
     21      4      1     11       110.4           110.4           0.000    
     22      5      1     11       110.4           110.4           0.000    
     23      4      1     12       110.4           110.4           0.000    
     24      5      1     12       110.4           110.4           0.000    
     25      4      1     13       110.4           110.4           0.000    
     26      5      1     13       110.4           110.4           0.000    
     27      4      1     14       110.4           110.4           0.000    
     28      5      1     14       110.4           110.4           0.000    
     29      4      1     15       110.4           110.4           0.000    
     30      5      1     15       110.4           110.4           0.000    
     31      4      1     16       110.4           110.4           0.000    
     32      5      1     16       110.4           110.4           0.000    
     33      4      1     17       110.4           110.4           0.000    
     34      5      1     17       110.4           110.4           0.000    
     35      4     17     17       110.4           110.4           0.000    
     36      5     17     17       110.4           110.4           0.000    
     37      4     18     17       110.4           110.4           0.000    
     38      5     18     17       110.4           110.4           0.000    
     39      4     18     16       110.4           110.4           0.000    
     40      5     18     16       110.4           110.4           0.000    
     41      4     19     16       110.4           110.4           0.000    
     42      5     19     16       110.4           110.4           0.000    
     43      4     19     15       110.4           110.4           0.000    
     44      5     19     15       110.4           110.4           0.000    
     45      4     20     15       110.4           110.4           0.000    
     46      5     20     15       110.4           110.4           0.000    
     47      4     20     14       110.4           110.4           0.000    
     48      5     20     14       110.4           110.4           0.000    
     49      4     20     13       110.4           110.4           0.000    
     50      5     20     13       110.4           110.4           0.000    
     51      4     20     12       110.4           110.4           0.000    
     52      5     20     12       110.4           110.4           0.000    
     53      4     20     11       110.4           110.4           0.000    
     54      5     20     11       110.4           110.4           0.000    
     55      4     21     11       110.4           110.4           0.000    
     56      5     21     11       110.4           110.4           0.000    
     57      4     21     10       110.4           110.4           0.000    
     58      5     21     10       110.4           110.4           0.000    
     59      4     21      9       110.4           110.4           0.000    
     60      5     21      9       110.4           110.4           0.000    
     61      4     21      8       110.4           110.4           0.000    
     62      5     21      8       110.4           110.4           0.000    
     63      4     21      7       110.4           110.4           0.000    
     64      5     21      7       110.4           110.4           0.000    
     65      4     21      6       110.4           110.4           0.000    
     66      5     21      6       110.4           110.4           0.000    
     67      4     21      5       110.4           110.4           0.000    
     68      5     21      5       110.4           110.4           0.000    
     69      4     22      5       110.4           110.4           0.000    
     70      5     22      5       110.4           110.4           0.000    
     71      4     22      4       110.4           110.4           0.000    
     72      5     22      4       110.4           110.4           0.000    
     73      4     22      3       110.4           110.4           0.000    
     74      5     22      3       110.4           110.4           0.000    
     75      4     22      2       110.4           110.4           0.000    
     76      5     22      2       110.4           110.4           0.000    
     77      4     22      1       110.4           110.4           0.000    
     78      5     22      1       110.4           110.4           0.000    


     78 TIME-VARIANT SPECIFIED-HEAD CELLS

 SOLVING FOR HEAD 


     3 CALLS TO PCG ROUTINE FOR TIME STEP   1 IN STRESS PERIOD   86
    48 TOTAL ITERATIONS

 MAXIMUM HEAD CHANGE FOR EACH ITERATION (1 INDICATES THE FIRST INNER ITERATION):

    HEAD CHANGE    HEAD CHANGE    HEAD CHANGE    HEAD CHANGE    HEAD CHANGE 
   LAYER,ROW,COL  LAYER,ROW,COL  LAYER,ROW,COL  LAYER,ROW,COL  LAYER,ROW,COL
 ---------------------------------------------------------------------------
  1 -0.7531E-01  0  0.4920E-01  0 -0.4317E-01  0 -0.3404E-01  0 -0.4642E-01
   (  5, 21,  2)  (  5, 17,  1)  (  5, 16,  2)  (  5, 17,  1)  (  5, 19,  1)
  0 -0.2642E-01  0  0.2380E-01  0  0.1744E-01  0 -0.1566E-01  0  0.9273E-02
   (  5, 20,  1)  (  5, 18,  1)  (  5, 19,  1)  (  5, 18,  1)  (  5, 18,  4)
  0 -0.7505E-02  0  0.6615E-02  0 -0.3162E-02  0 -0.3192E-02  0 -0.2280E-02
   (  5, 17,  3)  (  5, 16,  3)  (  5, 15,  1)  (  5, 12,  5)  (  5, 19,  3)
  0  0.2213E-02  0 -0.1380E-02  0  0.1188E-02  0  0.1290E-02  0  0.5044E-03
   (  5, 18,  2)  (  5, 18,  1)  (  5, 16,  1)  (  5, 19,  3)  (  5, 17,  2)
  0 -0.4892E-03  0  0.3246E-03  0 -0.3453E-03  0  0.2455E-03  0 -0.1463E-03
   (  5, 16,  1)  (  5, 15,  1)  (  5, 19,  2)  (  5, 19,  1)  (  5, 18,  5)
  0 -0.9395E-04  0 -0.8492E-04  0 -0.6154E-04  0 -0.5318E-04  0  0.2939E-04
   (  5, 20,  3)  (  5, 18,  1)  (  5, 14,  2)  (  5, 19,  2)  (  5, 15,  1)
  1 -0.2962E-04  0  0.4303E-04  0  0.3810E-04  0  0.2995E-04  0 -0.3294E-04
   (  5, 15,  1)  (  5,  6,  1)  (  5, 14,  2)  (  5, 18,  1)  (  5, 19,  1)
  0  0.2152E-04  0 -0.1441E-04  0 -0.1106E-04  0 -0.7689E-05  0  0.5553E-05
   (  5, 20,  1)  (  5, 13,  4)  (  5,  6,  1)  (  5, 11,  5)  (  5, 15,  1)
  0 -0.4502E-05  0  0.3942E-05  0 -0.2734E-05  0  0.1860E-05  0 -0.1212E-05
   (  5, 17,  1)  (  5, 18,  2)  (  5, 17,  4)  (  5, 16,  4)  (  5, 13,  5)
  0 -0.1154E-05  0 -0.8353E-06  1 -0.7562E-06
   (  5, 18,  3)  (  5, 15,  4)  (  5, 18,  1)

 MAXIMUM RESIDUAL FOR EACH ITERATION (1 INDICATES THE FIRST INNER ITERATION):

    RESIDUAL       RESIDUAL       RESIDUAL       RESIDUAL       RESIDUAL    
   LAYER,ROW,COL  LAYER,ROW,COL  LAYER,ROW,COL  LAYER,ROW,COL  LAYER,ROW,COL
 ---------------------------------------------------------------------------
  1  0.2116E-02  0  0.1913E-02  0  0.1725E-02  0  0.1475E-02  0  0.1182E-02
   (  3, 17, 17)  (  3, 17, 17)  (  3, 17, 17)  (  3, 17, 17)  (  3, 17, 17)
  0  0.8953E-03  0  0.6027E-03  0  0.3647E-03  0  0.2156E-03  0  0.1355E-03
   (  3, 17, 17)  (  3, 17, 17)  (  3, 17, 17)  (  3, 20, 11)  (  3, 20, 11)
  0  0.8927E-04  0  0.7382E-04  0  0.7024E-04  0  0.5744E-04  0  0.4502E-04
   (  4, 16, 17)  (  4, 16, 17)  (  4, 16, 17)  (  4, 16, 17)  (  4, 16, 17)
  0  0.3611E-04  0  0.3107E-04  0  0.2297E-04  0  0.1648E-04  0  0.1129E-04
   (  4, 16, 17)  (  4, 16, 17)  (  4, 16, 17)  (  4, 16, 17)  (  4, 16, 17)
  0  0.8393E-05  0  0.7533E-05  0  0.5965E-05  0  0.4549E-05  0 -0.2957E-05
   (  4, 16, 17)  (  4, 16, 17)  (  4, 16, 17)  (  4, 16, 17)  (  3, 21,  6)
  0 -0.1843E-05  0 -0.1174E-05  0 -0.9326E-06  0 -0.4607E-06  0 -0.3777E-06
   (  3, 21,  6)  (  3, 21,  6)  (  3, 21,  6)  (  3, 21,  6)  (  3, 21,  6)
  1 -0.4377E-06  0 -0.3617E-06  0 -0.2766E-06  0 -0.2240E-06  0  0.1888E-06
   (  3, 21,  6)  (  3, 21,  6)  (  3, 21,  6)  (  3, 21,  6)  (  4, 16, 17)
  0  0.1580E-06  0  0.1415E-06  0  0.1135E-06  0  0.8796E-07  0  0.7614E-07
   (  4, 16, 17)  (  4, 16, 17)  (  4, 16, 17)  (  4, 16, 17)  (  4, 16, 17)
  0  0.6934E-07  0  0.5204E-07  0  0.4241E-07  0  0.3193E-07  0  0.2429E-07
   (  4, 16, 17)  (  4, 16, 17)  (  4, 16, 17)  (  4, 16, 17)  (  4, 16, 17)
  0  0.1932E-07  0  0.1664E-07  1  0.1646E-07
   (  4, 16, 17)  (  4, 16, 17)  (  4, 16, 17)



 OUTPUT CONTROL FOR STRESS PERIOD   86   TIME STEP    1
    SAVE HEAD FOR ALL LAYERS
    SAVE DRAWDOWN FOR ALL LAYERS
    SAVE BUDGET
    PRINT BUDGET
 UBDSV1 SAVING "         STORAGE" ON UNIT   9 AT TIME STEP  1, STRESS PERIOD  86
 UBDSV2 SAVING "   CONSTANT HEAD" ON UNIT   9 AT TIME STEP  1, STRESS PERIOD  86
 UBDSV1 SAVING "FLOW RIGHT FACE " ON UNIT   9 AT TIME STEP  1, STRESS PERIOD  86
 UBDSV1 SAVING "FLOW FRONT FACE " ON UNIT   9 AT TIME STEP  1, STRESS PERIOD  86
 UBDSV1 SAVING "FLOW LOWER FACE " ON UNIT   9 AT TIME STEP  1, STRESS PERIOD  86
 UBDSV3 SAVING "        RECHARGE" ON UNIT   9 AT TIME STEP  1, STRESS PERIOD  86

 HEAD WILL BE SAVED ON UNIT   37 AT END OF TIME STEP    1, STRESS PERIOD   86

 DRAWDOWN WILL BE SAVED ON UNIT   38 AT END OF TIME STEP    1, STRESS PERIOD   86
1
  VOLUMETRIC BUDGET FOR ENTIRE MODEL AT END OF TIME STEP    1, STRESS PERIOD  86
  ------------------------------------------------------------------------------

     CUMULATIVE VOLUMES      L**3       RATES FOR THIS TIME STEP      L**3/T
     ------------------                 ------------------------

           IN:                                      IN:
           ---                                      ---
             STORAGE =       11139.6748               STORAGE =       9.4520E-04
       CONSTANT HEAD =       22580.0684         CONSTANT HEAD =           0.0000
            RECHARGE =         980.3232              RECHARGE =       9.7813E-05

            TOTAL IN =       34700.0664              TOTAL IN =       1.0430E-03

          OUT:                                     OUT:
          ----                                     ----
             STORAGE =        9845.9785               STORAGE =           0.0000
       CONSTANT HEAD =       24855.0273         CONSTANT HEAD =       1.0431E-03
            RECHARGE =           0.0000              RECHARGE =           0.0000

           TOTAL OUT =       34701.0078             TOTAL OUT =       1.0431E-03

            IN - OUT =          -0.9414              IN - OUT =      -1.1013E-07

 PERCENT DISCREPANCY =          -0.00     PERCENT DISCREPANCY =          -0.01






         TIME SUMMARY AT END OF TIME STEP    1 IN STRESS PERIOD   86
                    SECONDS     MINUTES      HOURS       DAYS        YEARS
                    -----------------------------------------------------------
   TIME STEP LENGTH  86400.      1440.0      24.000      1.0000     2.73785E-03
 STRESS PERIOD TIME  86400.      1440.0      24.000      1.0000     2.73785E-03
         TOTAL TIME 1.00224E+07 1.67040E+05  2784.0      116.00     0.31759    
1
1
                            STRESS PERIOD NO.   87, LENGTH =   259200.0    
                            -----------------------------------------------

                              NUMBER OF TIME STEPS =     3

                               MULTIPLIER FOR DELT =     1.000

                            INITIAL TIME STEP SIZE =   86400.00    

 REUSING RECH FROM LAST STRESS PERIOD

 CHD NO.   LAYER   ROW   COL    START HEAD        END HEAD         IFACE           
 ----------------------------------------------------------------------------------
      1      4      1      1       110.4           110.3           0.000    
      2      5      1      1       110.4           110.3           0.000    
      3      4      1      2       110.4           110.3           0.000    
      4      5      1      2       110.4           110.3           0.000    
      5      4      1      3       110.4           110.3           0.000    
      6      5      1      3       110.4           110.3           0.000    
      7      4      1      4       110.4           110.3           0.000    
      8      5      1      4       110.4           110.3           0.000    
      9      4      1      5       110.4           110.3           0.000    
     10      5      1      5       110.4           110.3           0.000    
     11      4      1      6       110.4           110.3           0.000    
     12      5      1      6       110.4           110.3           0.000    
     13      4      1      7       110.4           110.3           0.000    
     14      5      1      7       110.4           110.3           0.000    
     15      4      1      8       110.4           110.3           0.000    
     16      5      1      8       110.4           110.3           0.000    
     17      4      1      9       110.4           110.3           0.000    
     18      5      1      9       110.4           110.3           0.000    
     19      4      1     10       110.4           110.3           0.000    
     20      5      1     10       110.4           110.3           0.000    
     21      4      1     11       110.4           110.3           0.000    
     22      5      1     11       110.4           110.3           0.000    
     23      4      1     12       110.4           110.3           0.000    
     24      5      1     12       110.4           110.3           0.000    
     25      4      1     13       110.4           110.3           0.000    
     26      5      1     13       110.4           110.3           0.000    
     27      4      1     14       110.4           110.3           0.000    
     28      5      1     14       110.4           110.3           0.000    
     29      4      1     15       110.4           110.3           0.000    
     30      5      1     15       110.4           110.3           0.000    
     31      4      1     16       110.4           110.3           0.000    
     32      5      1     16       110.4           110.3           0.000    
     33      4      1     17       110.4           110.3           0.000    
     34      5      1     17       110.4           110.3           0.000    
     35      4     17     17       110.4           110.0           0.000    
     36      5     17     17       110.4           110.0           0.000    
     37      4     18     17       110.4           110.0           0.000    
     38      5     18     17       110.4           110.0           0.000    
     39      4     18     16       110.4           110.0           0.000    
     40      5     18     16       110.4           110.0           0.000    
     41      4     19     16       110.4           110.0           0.000    
     42      5     19     16       110.4           110.0           0.000    
     43      4     19     15       110.4           110.0           0.000    
     44      5     19     15       110.4           110.0           0.000    
     45      4     20     15       110.4           110.0           0.000    
     46      5     20     15       110.4           110.0           0.000    
     47      4     20     14       110.4           110.0           0.000    
     48      5     20     14       110.4           110.0           0.000    
     49      4     20     13       110.4           110.0           0.000    
     50      5     20     13       110.4           110.0           0.000    
     51      4     20     12       110.4           110.0           0.000    
     52      5     20     12       110.4           110.0           0.000    
     53      4     20     11       110.4           110.0           0.000    
     54      5     20     11       110.4           110.0           0.000    
     55      4     21     11       110.4           110.0           0.000    
     56      5     21     11       110.4           110.0           0.000    
     57      4     21     10       110.4           110.0           0.000    
     58      5     21     10       110.4           110.0           0.000    
     59      4     21      9       110.4           110.0           0.000    
     60      5     21      9       110.4           110.0           0.000    
     61      4     21      8       110.4           110.0           0.000    
     62      5     21      8       110.4           110.0           0.000    
     63      4     21      7       110.4           110.0           0.000    
     64      5     21      7       110.4           110.0           0.000    
     65      4     21      6       110.4           110.0           0.000    
     66      5     21      6       110.4           110.0           0.000    
     67      4     21      5       110.4           110.0           0.000    
     68      5     21      5       110.4           110.0           0.000    
     69      4     22      5       110.4           110.0           0.000    
     70      5     22      5       110.4           110.0           0.000    
     71      4     22      4       110.4           109.9           0.000    
     72      5     22      4       110.4           109.9           0.000    
     73      4     22      3       110.4           109.9           0.000    
     74      5     22      3       110.4           109.9           0.000    
     75      4     22      2       110.4           109.9           0.000    
     76      5     22      2       110.4           109.9           0.000    
     77      4     22      1       110.4           109.9           0.000    
     78      5     22      1       110.4           109.9           0.000    


     78 TIME-VARIANT SPECIFIED-HEAD CELLS

 SOLVING FOR HEAD 


     4 CALLS TO PCG ROUTINE FOR TIME STEP   1 IN STRESS PERIOD   87
    59 TOTAL ITERATIONS

 MAXIMUM HEAD CHANGE FOR EACH ITERATION (1 INDICATES THE FIRST INNER ITERATION):

    HEAD CHANGE    HEAD CHANGE    HEAD CHANGE    HEAD CHANGE    HEAD CHANGE 
   LAYER,ROW,COL  LAYER,ROW,COL  LAYER,ROW,COL  LAYER,ROW,COL  LAYER,ROW,COL
 ---------------------------------------------------------------------------
  1 -0.2923      0  0.1928      0 -0.1689      0 -0.1332      0 -0.1816    
   (  5, 21,  2)  (  5, 17,  1)  (  5, 16,  2)  (  5, 17,  1)  (  5, 19,  1)
  0 -0.1064      0  0.9396E-01  0  0.6923E-01  0 -0.6195E-01  0  0.3613E-01
   (  5, 20,  1)  (  5, 18,  1)  (  5, 19,  1)  (  5, 18,  1)  (  5, 18,  4)
  0 -0.2859E-01  0  0.1916E-01  0  0.1115E-01  0 -0.1265E-01  0  0.9116E-02
   (  5, 17,  3)  (  5, 13,  5)  (  5, 16,  2)  (  5, 15,  3)  (  5, 19,  1)
  0 -0.6663E-02  0  0.8251E-02  0  0.4233E-02  0  0.5205E-02  0  0.1885E-02
   (  5, 18,  1)  (  5, 18,  2)  (  5, 16,  1)  (  5, 19,  3)  (  5, 17,  2)
  0 -0.1680E-02  0  0.1283E-02  0 -0.1065E-02  0  0.9398E-03  0 -0.5784E-03
   (  5, 17,  5)  (  5, 15,  1)  (  5, 19,  2)  (  5, 20,  1)  (  5, 18,  5)
  0 -0.4316E-03  0  0.3342E-03  0 -0.3074E-03  0 -0.1992E-03  0 -0.1370E-03
   (  5, 20,  3)  (  5, 19,  2)  (  5, 19,  1)  (  5,  6,  1)  (  5, 17,  1)
  1  0.2082E-03  0 -0.3414E-03  0  0.4158E-03  0 -0.2797E-03  0  0.1905E-03
   (  5, 16,  1)  (  5, 20,  1)  (  5, 20,  1)  (  5, 20,  2)  (  5, 18,  1)
  0  0.9966E-04  0 -0.1183E-03  0  0.5642E-04  0 -0.4832E-04  0 -0.3391E-04
   (  5, 13,  1)  (  5, 13,  4)  (  5, 11,  4)  (  5, 12,  5)  (  5, 15,  4)
  0 -0.2841E-04  0  0.2547E-04  0 -0.2581E-04  0 -0.1843E-04  0  0.1387E-04
   (  5, 17,  1)  (  5, 16,  4)  (  5, 20,  1)  (  5, 19,  2)  (  5, 19,  4)
  0 -0.9414E-05  0  0.5164E-05  0  0.3539E-05  0 -0.4055E-05  0 -0.3092E-05
   (  5, 20,  1)  (  5, 16,  3)  (  5, 19,  2)  (  5, 18,  1)  (  5, 19,  3)
  0  0.1774E-05  0 -0.2248E-05  0  0.9919E-06  1 -0.1019E-05  0  0.1279E-05
   (  5, 17,  2)  (  5, 17,  1)  (  5, 18,  1)  (  5, 19,  1)  (  5, 20,  1)
  0  0.1252E-05  0 -0.1045E-05  0  0.8034E-06  1 -0.4419E-06
   (  5, 15,  2)  (  5, 16,  1)  (  5, 17,  4)  (  5, 14,  3)

 MAXIMUM RESIDUAL FOR EACH ITERATION (1 INDICATES THE FIRST INNER ITERATION):

    RESIDUAL       RESIDUAL       RESIDUAL       RESIDUAL       RESIDUAL    
   LAYER,ROW,COL  LAYER,ROW,COL  LAYER,ROW,COL  LAYER,ROW,COL  LAYER,ROW,COL
 ---------------------------------------------------------------------------
  1  0.8522E-02  0  0.7697E-02  0  0.6933E-02  0  0.5908E-02  0  0.4727E-02
   (  3, 17, 17)  (  3, 17, 17)  (  3, 17, 17)  (  3, 17, 17)  (  3, 17, 17)
  0  0.3566E-02  0  0.2405E-02  0  0.1463E-02  0  0.8647E-03  0  0.5466E-03
   (  3, 17, 17)  (  3, 17, 17)  (  3, 17, 17)  (  3, 20, 11)  (  3, 20, 11)
  0  0.3597E-03  0  0.2938E-03  0  0.2759E-03  0  0.2307E-03  0  0.1818E-03
   (  4, 16, 17)  (  4, 16, 17)  (  4, 16, 17)  (  4, 16, 17)  (  4, 16, 17)
  0  0.1618E-03  0  0.1250E-03  0  0.9247E-04  0  0.6610E-04  0  0.4549E-04
   (  4, 16, 17)  (  4, 16, 17)  (  4, 16, 17)  (  4, 16, 17)  (  4, 16, 17)
  0  0.3397E-04  0  0.3003E-04  0  0.2642E-04  0  0.1856E-04  0  0.1153E-04
   (  4, 16, 17)  (  4, 16, 17)  (  4, 16, 17)  (  4, 16, 17)  (  4, 16, 17)
  0 -0.7147E-05  0 -0.5516E-05  0 -0.3597E-05  0 -0.1768E-05  0  0.1417E-05
   (  3, 21,  6)  (  3, 21,  6)  (  3, 21,  6)  (  3, 21,  6)  (  3, 17, 17)
  1  0.2415E-05  0 -0.1368E-05  0 -0.9817E-06  0 -0.7631E-06  0 -0.7186E-06
   (  2, 17, 17)  (  3, 21,  6)  (  3, 21,  6)  (  4, 18, 14)  (  4, 18, 14)
  0 -0.6165E-06  0  0.5247E-06  0  0.4562E-06  0  0.3831E-06  0  0.3070E-06
   (  4, 18, 14)  (  4, 16, 17)  (  4, 16, 17)  (  4, 16, 17)  (  4, 16, 17)
  0  0.2706E-06  0  0.2293E-06  0  0.1739E-06  0  0.1264E-06  0  0.9066E-07
   (  4, 16, 17)  (  4, 16, 17)  (  2, 17, 17)  (  2, 17, 17)  (  2, 17, 17)
  0  0.6420E-07  0  0.4403E-07  0  0.3887E-07  0 -0.2905E-07  0 -0.2687E-07
   (  2, 17, 17)  (  2, 17, 17)  (  2, 17, 17)  (  4, 20,  2)  (  4, 20,  2)
  0 -0.2649E-07  0 -0.1656E-07  0 -0.1071E-07  1 -0.9822E-08  0  0.8221E-08
   (  4, 20,  2)  (  4, 20,  2)  (  4, 20,  2)  (  4, 20,  2)  (  2, 17, 17)
  0  0.5737E-08  0  0.4873E-08  0  0.3102E-08  1  0.3034E-08
   (  2, 17, 17)  (  2, 17, 17)  (  2, 17, 17)  (  2, 17, 17)



 OUTPUT CONTROL FOR STRESS PERIOD   87   TIME STEP    1
    SAVE HEAD FOR ALL LAYERS
    SAVE DRAWDOWN FOR ALL LAYERS
    SAVE BUDGET
    PRINT BUDGET
 UBDSV1 SAVING "         STORAGE" ON UNIT   9 AT TIME STEP  1, STRESS PERIOD  87
 UBDSV2 SAVING "   CONSTANT HEAD" ON UNIT   9 AT TIME STEP  1, STRESS PERIOD  87
 UBDSV1 SAVING "FLOW RIGHT FACE " ON UNIT   9 AT TIME STEP  1, STRESS PERIOD  87
 UBDSV1 SAVING "FLOW FRONT FACE " ON UNIT   9 AT TIME STEP  1, STRESS PERIOD  87
 UBDSV1 SAVING "FLOW LOWER FACE " ON UNIT   9 AT TIME STEP  1, STRESS PERIOD  87
 UBDSV3 SAVING "        RECHARGE" ON UNIT   9 AT TIME STEP  1, STRESS PERIOD  87

 HEAD WILL BE SAVED ON UNIT   37 AT END OF TIME STEP    1, STRESS PERIOD   87

 DRAWDOWN WILL BE SAVED ON UNIT   38 AT END OF TIME STEP    1, STRESS PERIOD   87
1
  VOLUMETRIC BUDGET FOR ENTIRE MODEL AT END OF TIME STEP    1, STRESS PERIOD  87
  ------------------------------------------------------------------------------

     CUMULATIVE VOLUMES      L**3       RATES FOR THIS TIME STEP      L**3/T
     ------------------                 ------------------------

           IN:                                      IN:
           ---                                      ---
             STORAGE =       11414.6025               STORAGE =       3.1820E-03
       CONSTANT HEAD =       22581.6230         CONSTANT HEAD =       1.7983E-05
            RECHARGE =         988.7743              RECHARGE =       9.7813E-05

            TOTAL IN =       34985.0000              TOTAL IN =       3.2978E-03

          OUT:                                     OUT:
          ----                                     ----
             STORAGE =        9845.9785               STORAGE =           0.0000
       CONSTANT HEAD =       25139.9688         CONSTANT HEAD =       3.2979E-03
            RECHARGE =           0.0000              RECHARGE =           0.0000

           TOTAL OUT =       34985.9453             TOTAL OUT =       3.2979E-03

            IN - OUT =          -0.9453              IN - OUT =      -1.0571E-07

 PERCENT DISCREPANCY =          -0.00     PERCENT DISCREPANCY =          -0.00






         TIME SUMMARY AT END OF TIME STEP    1 IN STRESS PERIOD   87
                    SECONDS     MINUTES      HOURS       DAYS        YEARS
                    -----------------------------------------------------------
   TIME STEP LENGTH  86400.      1440.0      24.000      1.0000     2.73785E-03
 STRESS PERIOD TIME  86400.      1440.0      24.000      1.0000     2.73785E-03
         TOTAL TIME 1.01088E+07 1.68480E+05  2808.0      117.00     0.32033    
1

 SOLVING FOR HEAD 
     4 CALLS TO PCG ROUTINE FOR TIME STEP   2 IN STRESS PERIOD   87
    62 TOTAL ITERATIONS

 MAXIMUM HEAD CHANGE FOR EACH ITERATION (1 INDICATES THE FIRST INNER ITERATION):

    HEAD CHANGE    HEAD CHANGE    HEAD CHANGE    HEAD CHANGE    HEAD CHANGE 
   LAYER,ROW,COL  LAYER,ROW,COL  LAYER,ROW,COL  LAYER,ROW,COL  LAYER,ROW,COL
 ---------------------------------------------------------------------------
  1 -0.3024      0  0.1974      0 -0.1740      0 -0.1368      0 -0.1835    
   (  5, 21,  2)  (  5, 17,  1)  (  5, 16,  2)  (  5, 17,  1)  (  5, 19,  1)
  0 -0.1084      0  0.9531E-01  0  0.6999E-01  0 -0.6396E-01  0  0.3729E-01
   (  5, 20,  1)  (  5, 18,  1)  (  5, 19,  1)  (  5, 18,  1)  (  5, 18,  4)
  0 -0.3206E-01  0  0.2232E-01  0 -0.1827E-01  0 -0.1330E-01  0  0.8180E-02
   (  5, 17,  3)  (  5, 16,  3)  (  5, 15,  1)  (  5, 12,  5)  (  5, 19,  1)
  0 -0.6932E-02  0  0.7839E-02  0  0.4245E-02  0  0.5276E-02  0  0.2117E-02
   (  5, 18,  1)  (  5, 18,  2)  (  5, 16,  1)  (  5, 19,  3)  (  5, 17,  2)
  0 -0.1929E-02  0  0.1545E-02  0 -0.1183E-02  0  0.9741E-03  0 -0.5923E-03
   (  5, 16,  1)  (  5, 15,  1)  (  5, 19,  2)  (  5, 20,  1)  (  5, 18,  5)
  0 -0.4239E-03  0 -0.3366E-03  0 -0.3125E-03  0 -0.2064E-03  0  0.1103E-03
   (  5, 20,  3)  (  5, 14,  2)  (  5, 19,  1)  (  5,  6,  1)  (  5, 15,  1)
  1 -0.3315E-03  0  0.6710E-03  0 -0.5324E-03  0 -0.2627E-03  0  0.2321E-03
   (  5, 15,  1)  (  5,  6,  1)  (  5,  6,  1)  (  5, 11,  1)  (  5, 18,  1)
  0 -0.1967E-03  0 -0.1362E-03  0  0.7919E-04  0 -0.6268E-04  0 -0.4693E-04
   (  5, 19,  1)  (  5, 14,  3)  (  5, 20,  1)  (  5, 20,  1)  (  5, 18,  2)
  0  0.2772E-04  0 -0.3215E-04  0 -0.2868E-04  0 -0.2289E-04  0  0.1744E-04
   (  5, 17,  3)  (  5, 14,  1)  (  5, 14,  4)  (  5, 19,  2)  (  5, 19,  4)
  0 -0.1024E-04  0 -0.7042E-05  0 -0.6379E-05  0 -0.3598E-05  0  0.5637E-05
   (  5, 17,  3)  (  5, 15,  4)  (  5, 19,  1)  (  5, 14,  2)  (  5, 15,  1)
  0 -0.3174E-05  0  0.2243E-05  0 -0.1548E-05  0  0.1372E-05  0 -0.6718E-06
   (  5, 17,  1)  (  5, 16,  2)  (  5, 20,  1)  (  5, 21,  1)  (  5, 18,  1)
  1  0.1583E-05  0 -0.2585E-05  0  0.1675E-05  0 -0.1441E-05  0  0.1081E-05
   (  5, 19,  1)  (  2, 19, 14)  (  5, 16,  1)  (  5, 18,  2)  (  5, 15,  4)
  0  0.7660E-06  1 -0.4992E-06
   (  5, 18,  1)  (  5, 18,  1)

 MAXIMUM RESIDUAL FOR EACH ITERATION (1 INDICATES THE FIRST INNER ITERATION):

    RESIDUAL       RESIDUAL       RESIDUAL       RESIDUAL       RESIDUAL    
   LAYER,ROW,COL  LAYER,ROW,COL  LAYER,ROW,COL  LAYER,ROW,COL  LAYER,ROW,COL
 ---------------------------------------------------------------------------
  1  0.8506E-02  0  0.7681E-02  0  0.6919E-02  0  0.5915E-02  0  0.4757E-02
   (  3, 17, 17)  (  3, 17, 17)  (  3, 17, 17)  (  3, 17, 17)  (  3, 17, 17)
  0  0.3610E-02  0  0.2441E-02  0  0.1477E-02  0  0.8650E-03  0  0.5445E-03
   (  3, 17, 17)  (  3, 17, 17)  (  3, 17, 17)  (  3, 20, 11)  (  3, 20, 11)
  0  0.3555E-03  0  0.3221E-03  0  0.2805E-03  0  0.2270E-03  0  0.1791E-03
   (  4, 16, 17)  (  4, 16, 17)  (  4, 16, 17)  (  4, 16, 17)  (  4, 16, 17)
  0  0.1531E-03  0  0.1241E-03  0  0.9207E-04  0  0.6621E-04  0  0.4553E-04
   (  4, 16, 17)  (  4, 16, 17)  (  4, 16, 17)  (  4, 16, 17)  (  4, 16, 17)
  0  0.3922E-04  0  0.3075E-04  0  0.2548E-04  0  0.1833E-04  0 -0.1177E-04
   (  4, 16, 17)  (  4, 16, 17)  (  4, 16, 17)  (  4, 16, 17)  (  3, 21,  6)
  0 -0.7338E-05  0 -0.5569E-05  0 -0.3704E-05  0 -0.1832E-05  0 -0.1598E-05
   (  3, 21,  6)  (  3, 21,  6)  (  3, 21,  6)  (  3, 21,  6)  (  3, 21,  6)
  1  0.3068E-05  0  0.4511E-05  0  0.1400E-05  0 -0.1041E-05  0 -0.8853E-06
   (  2, 17, 17)  (  5,  6,  1)  (  5, 12,  4)  (  5,  6,  1)  (  4, 18, 14)
  0 -0.7346E-06  0 -0.6214E-06  0  0.5321E-06  0  0.4602E-06  0  0.3632E-06
   (  4, 18, 14)  (  4, 18, 14)  (  4, 16, 17)  (  4, 16, 17)  (  4, 16, 17)
  0  0.3308E-06  0  0.2774E-06  0  0.2179E-06  0  0.1613E-06  0  0.1142E-06
   (  4, 16, 17)  (  4, 16, 17)  (  2, 17, 17)  (  2, 17, 17)  (  2, 17, 17)
  0  0.8047E-07  0  0.5385E-07  0  0.4027E-07  0 -0.3543E-07  0 -0.3664E-07
   (  2, 17, 17)  (  2, 17, 17)  (  4, 21,  1)  (  4, 20,  2)  (  4, 20,  2)
  0 -0.3303E-07  0 -0.2278E-07  0 -0.1345E-07  0  0.8171E-08  0 -0.7195E-08
   (  4, 20,  2)  (  4, 20,  2)  (  4, 20,  2)  (  2, 17, 17)  (  4, 16, 16)
  1  0.1049E-07  0 -0.6999E-08  0 -0.6137E-08  0 -0.5797E-08  0 -0.4929E-08
   (  2, 20,  4)  (  5,  6,  2)  (  3, 18, 15)  (  3, 18, 15)  (  3, 18, 15)
  0 -0.4286E-08  1 -0.4068E-08
   (  3, 18, 15)  (  3, 18, 15)



 OUTPUT CONTROL FOR STRESS PERIOD   87   TIME STEP    2
    SAVE HEAD FOR ALL LAYERS
    SAVE DRAWDOWN FOR ALL LAYERS
    SAVE BUDGET
    PRINT BUDGET
 UBDSV1 SAVING "         STORAGE" ON UNIT   9 AT TIME STEP  2, STRESS PERIOD  87
 UBDSV2 SAVING "   CONSTANT HEAD" ON UNIT   9 AT TIME STEP  2, STRESS PERIOD  87
 UBDSV1 SAVING "FLOW RIGHT FACE " ON UNIT   9 AT TIME STEP  2, STRESS PERIOD  87
 UBDSV1 SAVING "FLOW FRONT FACE " ON UNIT   9 AT TIME STEP  2, STRESS PERIOD  87
 UBDSV1 SAVING "FLOW LOWER FACE " ON UNIT   9 AT TIME STEP  2, STRESS PERIOD  87
 UBDSV3 SAVING "        RECHARGE" ON UNIT   9 AT TIME STEP  2, STRESS PERIOD  87

 HEAD WILL BE SAVED ON UNIT   37 AT END OF TIME STEP    2, STRESS PERIOD   87

 DRAWDOWN WILL BE SAVED ON UNIT   38 AT END OF TIME STEP    2, STRESS PERIOD   87
1
  VOLUMETRIC BUDGET FOR ENTIRE MODEL AT END OF TIME STEP    2, STRESS PERIOD  87
  ------------------------------------------------------------------------------

     CUMULATIVE VOLUMES      L**3       RATES FOR THIS TIME STEP      L**3/T
     ------------------                 ------------------------

           IN:                                      IN:
           ---                                      ---
             STORAGE =       11746.8467               STORAGE =       3.8454E-03
       CONSTANT HEAD =       22637.6641         CONSTANT HEAD =       6.4863E-04
            RECHARGE =         997.2253              RECHARGE =       9.7813E-05

            TOTAL IN =       35381.7383              TOTAL IN =       4.5919E-03

          OUT:                                     OUT:
          ----                                     ----
             STORAGE =        9845.9785               STORAGE =           0.0000
       CONSTANT HEAD =       25536.7148         CONSTANT HEAD =       4.5920E-03
            RECHARGE =           0.0000              RECHARGE =           0.0000

           TOTAL OUT =       35382.6953             TOTAL OUT =       4.5920E-03

            IN - OUT =          -0.9570              IN - OUT =      -9.8720E-08

 PERCENT DISCREPANCY =          -0.00     PERCENT DISCREPANCY =          -0.00






         TIME SUMMARY AT END OF TIME STEP    2 IN STRESS PERIOD   87
                    SECONDS     MINUTES      HOURS       DAYS        YEARS
                    -----------------------------------------------------------
   TIME STEP LENGTH  86400.      1440.0      24.000      1.0000     2.73785E-03
 STRESS PERIOD TIME 1.72800E+05  2880.0      48.000      2.0000     5.47570E-03
         TOTAL TIME 1.01952E+07 1.69920E+05  2832.0      118.00     0.32307    
1

 SOLVING FOR HEAD 
     4 CALLS TO PCG ROUTINE FOR TIME STEP   3 IN STRESS PERIOD   87
    60 TOTAL ITERATIONS

 MAXIMUM HEAD CHANGE FOR EACH ITERATION (1 INDICATES THE FIRST INNER ITERATION):

    HEAD CHANGE    HEAD CHANGE    HEAD CHANGE    HEAD CHANGE    HEAD CHANGE 
   LAYER,ROW,COL  LAYER,ROW,COL  LAYER,ROW,COL  LAYER,ROW,COL  LAYER,ROW,COL
 ---------------------------------------------------------------------------
  1 -0.3061      0  0.1991      0 -0.1759      0 -0.1379      0 -0.1834    
   (  5, 21,  2)  (  5, 17,  1)  (  5, 16,  2)  (  5, 17,  1)  (  5, 19,  1)
  0 -0.1099      0  0.9569E-01  0  0.7024E-01  0 -0.6481E-01  0  0.3732E-01
   (  5, 20,  1)  (  5, 18,  1)  (  5, 19,  1)  (  5, 18,  1)  (  5, 18,  4)
  0 -0.3034E-01  0  0.2456E-01  0 -0.1187E-01  0 -0.1166E-01  0 -0.9260E-02
   (  5, 17,  3)  (  5, 16,  3)  (  5, 15,  1)  (  5, 12,  5)  (  5, 19,  3)
  0  0.8951E-02  0 -0.5607E-02  0  0.4801E-02  0  0.5232E-02  0 -0.1788E-02
   (  5, 18,  2)  (  5, 18,  1)  (  5, 16,  1)  (  5, 19,  3)  (  5, 18,  3)
  0 -0.1676E-02  0  0.1345E-02  0 -0.1126E-02  0  0.1052E-02  0 -0.6365E-03
   (  5, 20,  1)  (  5, 19,  1)  (  5, 16,  2)  (  5, 16,  1)  (  5, 18,  5)
  0 -0.4094E-03  0 -0.3496E-03  0 -0.1894E-03  0 -0.2015E-03  0  0.1455E-03
   (  5, 20,  3)  (  5, 14,  2)  (  5, 19,  1)  (  5,  6,  1)  (  5,  6,  1)
  1  0.5914E-03  0 -0.6989E-03  0  0.6839E-03  0 -0.3319E-03  0 -0.2392E-03
   (  5, 19,  1)  (  5, 15,  1)  (  5, 17,  2)  (  5, 12,  2)  (  5, 17,  1)
  0  0.2291E-03  0 -0.2026E-03  0  0.9095E-04  0 -0.5538E-04  0 -0.4459E-04
   (  5, 18,  1)  (  5, 19,  1)  (  5, 20,  1)  (  5, 20,  1)  (  5, 15,  4)
  0  0.3339E-04  0  0.2805E-04  0 -0.2960E-04  0  0.2135E-04  0 -0.1468E-04
   (  5, 17,  4)  (  5, 18,  2)  (  5, 16,  2)  (  5, 16,  1)  (  5, 17,  1)
  0 -0.1310E-04  0 -0.7686E-05  0  0.7365E-05  0 -0.5260E-05  0  0.3807E-05
   (  5, 20,  1)  (  5, 18,  2)  (  5, 17,  1)  (  5, 19,  1)  (  5, 16,  5)
  0  0.2200E-05  0  0.2074E-05  0 -0.1575E-05  0  0.9821E-06  1  0.1711E-05
   (  5, 19,  1)  (  5, 17,  1)  (  5, 16,  2)  (  5, 17,  5)  (  5, 19,  1)
  0 -0.3120E-05  0 -0.1682E-05  0  0.1781E-05  0  0.8710E-06  1  0.8387E-06
   (  2, 19, 14)  (  5, 16,  1)  (  5, 21,  3)  (  5, 14,  3)  (  5, 18,  1)

 MAXIMUM RESIDUAL FOR EACH ITERATION (1 INDICATES THE FIRST INNER ITERATION):

    RESIDUAL       RESIDUAL       RESIDUAL       RESIDUAL       RESIDUAL    
   LAYER,ROW,COL  LAYER,ROW,COL  LAYER,ROW,COL  LAYER,ROW,COL  LAYER,ROW,COL
 ---------------------------------------------------------------------------
  1  0.8500E-02  0  0.7673E-02  0  0.6910E-02  0  0.5912E-02  0  0.4765E-02
   (  3, 17, 17)  (  3, 17, 17)  (  3, 17, 17)  (  3, 17, 17)  (  3, 17, 17)
  0  0.3622E-02  0  0.2452E-02  0  0.1479E-02  0  0.8626E-03  0  0.5426E-03
   (  3, 17, 17)  (  3, 17, 17)  (  3, 17, 17)  (  3, 20, 11)  (  3, 20, 11)
  0  0.3529E-03  0  0.2871E-03  0  0.2720E-03  0  0.2245E-03  0  0.1773E-03
   (  4, 16, 17)  (  4, 16, 17)  (  4, 16, 17)  (  4, 16, 17)  (  4, 16, 17)
  0  0.1438E-03  0  0.1231E-03  0  0.9162E-04  0  0.6601E-04  0  0.4536E-04
   (  4, 16, 17)  (  4, 16, 17)  (  4, 16, 17)  (  4, 16, 17)  (  4, 16, 17)
  0  0.3355E-04  0  0.2793E-04  0  0.2308E-04  0  0.1821E-04  0 -0.1182E-04
   (  4, 16, 17)  (  4, 16, 17)  (  4, 16, 17)  (  4, 16, 17)  (  3, 21,  6)
  0 -0.7340E-05  0 -0.4256E-05  0 -0.3661E-05  0 -0.1824E-05  0  0.1184E-05
   (  3, 21,  6)  (  3, 21,  6)  (  3, 21,  6)  (  3, 21,  6)  (  3, 17, 17)
  1  0.2730E-05  0 -0.2561E-05  0 -0.2196E-05  0  0.1200E-05  0 -0.1071E-05
   (  2, 17, 17)  (  5,  6,  1)  (  5,  6,  1)  (  5, 16, 17)  (  3, 17, 17)
  0 -0.9208E-06  0 -0.7308E-06  0 -0.5455E-06  0 -0.4091E-06  0  0.3491E-06
   (  3, 17, 17)  (  3, 17, 17)  (  3, 17, 17)  (  3, 17, 17)  (  2, 17, 17)
  0  0.2997E-06  0  0.2577E-06  0  0.2272E-06  0  0.1632E-06  0  0.1141E-06
   (  2, 17, 17)  (  2, 17, 17)  (  2, 17, 17)  (  2, 17, 17)  (  2, 17, 17)
  0  0.7431E-07  0  0.5881E-07  0  0.4887E-07  0 -0.3589E-07  0 -0.3095E-07
   (  2, 17, 17)  (  2, 17, 17)  (  2, 17, 17)  (  4, 20,  2)  (  4, 20,  2)
  0 -0.2316E-07  0 -0.1614E-07  0  0.1099E-07  0  0.8711E-08  1  0.1335E-07
   (  4, 20,  2)  (  4, 20,  2)  (  2, 17, 17)  (  2, 17, 17)  (  2, 21,  4)
  0 -0.7368E-08  0 -0.7078E-08  0 -0.5960E-08  0 -0.5359E-08  1 -0.5239E-08
   (  4,  8,  2)  (  3, 18, 15)  (  3, 18, 15)  (  3, 18, 15)  (  3, 18, 15)



 OUTPUT CONTROL FOR STRESS PERIOD   87   TIME STEP    3
    SAVE HEAD FOR ALL LAYERS
    SAVE DRAWDOWN FOR ALL LAYERS
    SAVE BUDGET
    PRINT BUDGET
 UBDSV1 SAVING "         STORAGE" ON UNIT   9 AT TIME STEP  3, STRESS PERIOD  87
 UBDSV2 SAVING "   CONSTANT HEAD" ON UNIT   9 AT TIME STEP  3, STRESS PERIOD  87
 UBDSV1 SAVING "FLOW RIGHT FACE " ON UNIT   9 AT TIME STEP  3, STRESS PERIOD  87
 UBDSV1 SAVING "FLOW FRONT FACE " ON UNIT   9 AT TIME STEP  3, STRESS PERIOD  87
 UBDSV1 SAVING "FLOW LOWER FACE " ON UNIT   9 AT TIME STEP  3, STRESS PERIOD  87
 UBDSV3 SAVING "        RECHARGE" ON UNIT   9 AT TIME STEP  3, STRESS PERIOD  87

 HEAD WILL BE SAVED ON UNIT   37 AT END OF TIME STEP    3, STRESS PERIOD   87

 DRAWDOWN WILL BE SAVED ON UNIT   38 AT END OF TIME STEP    3, STRESS PERIOD   87
1
  VOLUMETRIC BUDGET FOR ENTIRE MODEL AT END OF TIME STEP    3, STRESS PERIOD  87
  ------------------------------------------------------------------------------

     CUMULATIVE VOLUMES      L**3       RATES FOR THIS TIME STEP      L**3/T
     ------------------                 ------------------------

           IN:                                      IN:
           ---                                      ---
             STORAGE =       12097.8789               STORAGE =       4.0629E-03
       CONSTANT HEAD =       22763.5898         CONSTANT HEAD =       1.4575E-03
            RECHARGE =        1005.6764              RECHARGE =       9.7813E-05

            TOTAL IN =       35867.1445              TOTAL IN =       5.6182E-03

          OUT:                                     OUT:
          ----                                     ----
             STORAGE =        9845.9785               STORAGE =           0.0000
       CONSTANT HEAD =       26022.1328         CONSTANT HEAD =       5.6183E-03
            RECHARGE =           0.0000              RECHARGE =           0.0000

           TOTAL OUT =       35868.1094             TOTAL OUT =       5.6183E-03

            IN - OUT =          -0.9648              IN - OUT =      -1.1874E-07

 PERCENT DISCREPANCY =          -0.00     PERCENT DISCREPANCY =          -0.00






         TIME SUMMARY AT END OF TIME STEP    3 IN STRESS PERIOD   87
                    SECONDS     MINUTES      HOURS       DAYS        YEARS
                    -----------------------------------------------------------
   TIME STEP LENGTH  86400.      1440.0      24.000      1.0000     2.73785E-03
 STRESS PERIOD TIME 2.59200E+05  4320.0      72.000      3.0000     8.21355E-03
         TOTAL TIME 1.02816E+07 1.71360E+05  2856.0      119.00     0.32580    
1
1
                            STRESS PERIOD NO.   88, LENGTH =   86400.00    
                            -----------------------------------------------

                              NUMBER OF TIME STEPS =     1

                               MULTIPLIER FOR DELT =     1.000

                            INITIAL TIME STEP SIZE =   86400.00    

 REUSING RECH FROM LAST STRESS PERIOD

 CHD NO.   LAYER   ROW   COL    START HEAD        END HEAD         IFACE           
 ----------------------------------------------------------------------------------
      1      4      1      1       110.3           110.2           0.000    
      2      5      1      1       110.3           110.2           0.000    
      3      4      1      2       110.3           110.2           0.000    
      4      5      1      2       110.3           110.2           0.000    
      5      4      1      3       110.3           110.2           0.000    
      6      5      1      3       110.3           110.2           0.000    
      7      4      1      4       110.3           110.2           0.000    
      8      5      1      4       110.3           110.2           0.000    
      9      4      1      5       110.3           110.2           0.000    
     10      5      1      5       110.3           110.2           0.000    
     11      4      1      6       110.3           110.2           0.000    
     12      5      1      6       110.3           110.2           0.000    
     13      4      1      7       110.3           110.2           0.000    
     14      5      1      7       110.3           110.2           0.000    
     15      4      1      8       110.3           110.2           0.000    
     16      5      1      8       110.3           110.2           0.000    
     17      4      1      9       110.3           110.2           0.000    
     18      5      1      9       110.3           110.2           0.000    
     19      4      1     10       110.3           110.2           0.000    
     20      5      1     10       110.3           110.2           0.000    
     21      4      1     11       110.3           110.2           0.000    
     22      5      1     11       110.3           110.2           0.000    
     23      4      1     12       110.3           110.2           0.000    
     24      5      1     12       110.3           110.2           0.000    
     25      4      1     13       110.3           110.2           0.000    
     26      5      1     13       110.3           110.2           0.000    
     27      4      1     14       110.3           110.2           0.000    
     28      5      1     14       110.3           110.2           0.000    
     29      4      1     15       110.3           110.2           0.000    
     30      5      1     15       110.3           110.2           0.000    
     31      4      1     16       110.3           110.2           0.000    
     32      5      1     16       110.3           110.2           0.000    
     33      4      1     17       110.3           110.2           0.000    
     34      5      1     17       110.3           110.2           0.000    
     35      4     17     17       110.0           110.1           0.000    
     36      5     17     17       110.0           110.1           0.000    
     37      4     18     17       110.0           110.1           0.000    
     38      5     18     17       110.0           110.1           0.000    
     39      4     18     16       110.0           110.1           0.000    
     40      5     18     16       110.0           110.1           0.000    
     41      4     19     16       110.0           110.1           0.000    
     42      5     19     16       110.0           110.1           0.000    
     43      4     19     15       110.0           110.1           0.000    
     44      5     19     15       110.0           110.1           0.000    
     45      4     20     15       110.0           110.1           0.000    
     46      5     20     15       110.0           110.1           0.000    
     47      4     20     14       110.0           110.1           0.000    
     48      5     20     14       110.0           110.1           0.000    
     49      4     20     13       110.0           110.1           0.000    
     50      5     20     13       110.0           110.1           0.000    
     51      4     20     12       110.0           110.1           0.000    
     52      5     20     12       110.0           110.1           0.000    
     53      4     20     11       110.0           110.1           0.000    
     54      5     20     11       110.0           110.1           0.000    
     55      4     21     11       110.0           110.1           0.000    
     56      5     21     11       110.0           110.1           0.000    
     57      4     21     10       110.0           110.1           0.000    
     58      5     21     10       110.0           110.1           0.000    
     59      4     21      9       110.0           110.1           0.000    
     60      5     21      9       110.0           110.1           0.000    
     61      4     21      8       110.0           110.1           0.000    
     62      5     21      8       110.0           110.1           0.000    
     63      4     21      7       110.0           110.1           0.000    
     64      5     21      7       110.0           110.1           0.000    
     65      4     21      6       110.0           110.1           0.000    
     66      5     21      6       110.0           110.1           0.000    
     67      4     21      5       110.0           110.1           0.000    
     68      5     21      5       110.0           110.1           0.000    
     69      4     22      5       110.0           110.1           0.000    
     70      5     22      5       110.0           110.1           0.000    
     71      4     22      4       109.9           110.1           0.000    
     72      5     22      4       109.9           110.1           0.000    
     73      4     22      3       109.9           110.1           0.000    
     74      5     22      3       109.9           110.1           0.000    
     75      4     22      2       109.9           110.1           0.000    
     76      5     22      2       109.9           110.1           0.000    
     77      4     22      1       109.9           110.1           0.000    
     78      5     22      1       109.9           110.1           0.000    


     78 TIME-VARIANT SPECIFIED-HEAD CELLS

 SOLVING FOR HEAD 


     3 CALLS TO PCG ROUTINE FOR TIME STEP   1 IN STRESS PERIOD   88
    55 TOTAL ITERATIONS

 MAXIMUM HEAD CHANGE FOR EACH ITERATION (1 INDICATES THE FIRST INNER ITERATION):

    HEAD CHANGE    HEAD CHANGE    HEAD CHANGE    HEAD CHANGE    HEAD CHANGE 
   LAYER,ROW,COL  LAYER,ROW,COL  LAYER,ROW,COL  LAYER,ROW,COL  LAYER,ROW,COL
 ---------------------------------------------------------------------------
  1  0.3264      0 -0.2194      0  0.1875      0  0.1463      0  0.2071    
   (  5, 21,  2)  (  5, 17,  1)  (  5, 16,  2)  (  5, 17,  1)  (  5, 19,  1)
  0  0.1203      0 -0.1069      0 -0.7982E-01  0  0.6859E-01  0 -0.4057E-01
   (  5, 20,  1)  (  5, 18,  1)  (  5, 19,  1)  (  5, 18,  1)  (  5, 18,  4)
  0  0.2840E-01  0  0.2065E-01  0 -0.2666E-01  0  0.1516E-01  0 -0.9091E-02
   (  5, 17,  3)  (  5, 17,  2)  (  5, 16,  3)  (  5, 12,  5)  (  5, 19,  1)
  0  0.6736E-02  0 -0.5902E-02  0 -0.4468E-02  0 -0.6102E-02  0 -0.2651E-02
   (  5, 18,  1)  (  5, 18,  2)  (  5, 16,  3)  (  5, 19,  3)  (  5, 17,  2)
  0  0.1804E-02  0 -0.1608E-02  0  0.1424E-02  0  0.9537E-03  0  0.6218E-03
   (  5, 16,  1)  (  5, 20,  3)  (  5, 20,  1)  (  5, 19,  3)  (  5, 18,  5)
  0  0.5143E-03  0  0.2910E-03  0  0.2724E-03  0 -0.2289E-03  0 -0.1456E-03
   (  5, 20,  3)  (  5, 14,  2)  (  5, 19,  2)  (  5, 18,  1)  (  5, 15,  1)
  1  0.1654E-03  0 -0.2665E-03  0  0.2202E-03  0  0.2955E-03  0  0.1726E-03
   (  5, 16,  1)  (  5, 14,  2)  (  5, 13,  3)  (  5,  6,  1)  (  5, 17,  3)
  0  0.1327E-03  0  0.7156E-04  0  0.5541E-04  0 -0.3829E-04  0  0.2890E-04
   (  5, 19,  1)  (  5, 15,  1)  (  5, 18,  2)  (  5, 12,  4)  (  5, 12,  5)
  0  0.1841E-04  0 -0.2748E-04  0 -0.1695E-04  0  0.1780E-04  0 -0.8771E-05
   (  5, 16,  2)  (  5, 16,  1)  (  5, 16,  4)  (  5, 17,  5)  (  5, 19,  1)
  0  0.6115E-05  0 -0.9619E-05  0 -0.5763E-05  0 -0.5460E-05  0 -0.2471E-05
   (  5, 18,  1)  (  5, 19,  3)  (  5, 17,  1)  (  5, 20,  1)  (  5, 17,  2)
  0  0.1737E-05  0 -0.2003E-05  0 -0.1079E-05  0  0.7140E-06  1  0.8023E-06
   (  5, 16,  1)  (  5, 16,  2)  (  5, 19,  4)  (  5, 17,  3)  (  5, 19,  1)

 MAXIMUM RESIDUAL FOR EACH ITERATION (1 INDICATES THE FIRST INNER ITERATION):

    RESIDUAL       RESIDUAL       RESIDUAL       RESIDUAL       RESIDUAL    
   LAYER,ROW,COL  LAYER,ROW,COL  LAYER,ROW,COL  LAYER,ROW,COL  LAYER,ROW,COL
 ---------------------------------------------------------------------------
  1 -0.1008E-01  0 -0.9106E-02  0 -0.8215E-02  0 -0.6989E-02  0 -0.5569E-02
   (  3, 17, 17)  (  3, 17, 17)  (  3, 17, 17)  (  3, 17, 17)  (  3, 17, 17)
  0 -0.4178E-02  0 -0.2816E-02  0 -0.1732E-02  0 -0.1057E-02  0 -0.6831E-03
   (  3, 17, 17)  (  3, 17, 17)  (  3, 17, 17)  (  3, 20, 11)  (  3, 20, 11)
  0 -0.4571E-03  0 -0.3941E-03  0 -0.3418E-03  0 -0.2759E-03  0 -0.2159E-03
   (  3, 20, 11)  (  4, 16, 17)  (  4, 16, 17)  (  4, 16, 17)  (  4, 16, 17)
  0 -0.1660E-03  0 -0.1481E-03  0 -0.1102E-03  0 -0.7866E-04  0 -0.5502E-04
   (  4, 16, 17)  (  4, 16, 17)  (  4, 16, 17)  (  4, 16, 17)  (  4, 16, 17)
  0 -0.5050E-04  0 -0.4099E-04  0 -0.3299E-04  0 -0.2241E-04  0 -0.1385E-04
   (  4, 16, 17)  (  4, 16, 17)  (  4, 16, 17)  (  4, 16, 17)  (  4, 16, 17)
  0 -0.8304E-05  0 -0.4417E-05  0 -0.3042E-05  0 -0.2076E-05  0 -0.1725E-05
   (  4, 16, 17)  (  4, 16, 17)  (  4, 16, 17)  (  4, 16, 17)  (  3, 17, 17)
  1 -0.3260E-05  0 -0.2703E-05  0 -0.2326E-05  0 -0.1463E-05  0 -0.1055E-05
   (  3, 17, 17)  (  3, 17, 17)  (  3, 17, 17)  (  3, 17, 17)  (  3, 17, 17)
  0 -0.8773E-06  0 -0.7133E-06  0 -0.5782E-06  0 -0.4525E-06  0 -0.3807E-06
   (  3, 17, 17)  (  3, 17, 17)  (  3, 17, 17)  (  3, 17, 17)  (  3, 17, 17)
  0 -0.3569E-06  0 -0.2845E-06  0 -0.2372E-06  0 -0.1893E-06  0 -0.1488E-06
   (  3, 17, 17)  (  3, 17, 17)  (  3, 17, 17)  (  3, 17, 17)  (  3, 17, 17)
  0 -0.1330E-06  0 -0.9383E-07  0 -0.6606E-07  0 -0.4643E-07  0 -0.3600E-07
   (  3, 17, 17)  (  3, 17, 17)  (  3, 17, 17)  (  3, 17, 17)  (  3, 17, 17)
  0 -0.3255E-07  0 -0.2256E-07  0 -0.1592E-07  0 -0.1319E-07  1 -0.1297E-07
   (  3, 17, 17)  (  3, 17, 17)  (  3, 17, 17)  (  3, 17, 17)  (  3, 17, 17)



 OUTPUT CONTROL FOR STRESS PERIOD   88   TIME STEP    1
    SAVE HEAD FOR ALL LAYERS
    SAVE DRAWDOWN FOR ALL LAYERS
    SAVE BUDGET
    PRINT BUDGET
 UBDSV1 SAVING "         STORAGE" ON UNIT   9 AT TIME STEP  1, STRESS PERIOD  88
 UBDSV2 SAVING "   CONSTANT HEAD" ON UNIT   9 AT TIME STEP  1, STRESS PERIOD  88
 UBDSV1 SAVING "FLOW RIGHT FACE " ON UNIT   9 AT TIME STEP  1, STRESS PERIOD  88
 UBDSV1 SAVING "FLOW FRONT FACE " ON UNIT   9 AT TIME STEP  1, STRESS PERIOD  88
 UBDSV1 SAVING "FLOW LOWER FACE " ON UNIT   9 AT TIME STEP  1, STRESS PERIOD  88
 UBDSV3 SAVING "        RECHARGE" ON UNIT   9 AT TIME STEP  1, STRESS PERIOD  88

 HEAD WILL BE SAVED ON UNIT   37 AT END OF TIME STEP    1, STRESS PERIOD   88

 DRAWDOWN WILL BE SAVED ON UNIT   38 AT END OF TIME STEP    1, STRESS PERIOD   88
1
  VOLUMETRIC BUDGET FOR ENTIRE MODEL AT END OF TIME STEP    1, STRESS PERIOD  88
  ------------------------------------------------------------------------------

     CUMULATIVE VOLUMES      L**3       RATES FOR THIS TIME STEP      L**3/T
     ------------------                 ------------------------

           IN:                                      IN:
           ---                                      ---
             STORAGE =       12108.6182               STORAGE =       1.2430E-04
       CONSTANT HEAD =       22892.1172         CONSTANT HEAD =       1.4876E-03
            RECHARGE =        1014.1274              RECHARGE =       9.7813E-05

            TOTAL IN =       36014.8633              TOTAL IN =       1.7097E-03

          OUT:                                     OUT:
          ----                                     ----
             STORAGE =        9969.3613               STORAGE =       1.4280E-03
       CONSTANT HEAD =       26046.4746         CONSTANT HEAD =       2.8174E-04
            RECHARGE =           0.0000              RECHARGE =           0.0000

           TOTAL OUT =       36015.8359             TOTAL OUT =       1.7098E-03

            IN - OUT =          -0.9727              IN - OUT =      -8.5915E-08

 PERCENT DISCREPANCY =          -0.00     PERCENT DISCREPANCY =          -0.01






         TIME SUMMARY AT END OF TIME STEP    1 IN STRESS PERIOD   88
                    SECONDS     MINUTES      HOURS       DAYS        YEARS
                    -----------------------------------------------------------
   TIME STEP LENGTH  86400.      1440.0      24.000      1.0000     2.73785E-03
 STRESS PERIOD TIME  86400.      1440.0      24.000      1.0000     2.73785E-03
         TOTAL TIME 1.03680E+07 1.72800E+05  2880.0      120.00     0.32854    
1
1
                            STRESS PERIOD NO.   89, LENGTH =   86400.00    
                            -----------------------------------------------

                              NUMBER OF TIME STEPS =     1

                               MULTIPLIER FOR DELT =     1.000

                            INITIAL TIME STEP SIZE =   86400.00    

 REUSING RECH FROM LAST STRESS PERIOD

 CHD NO.   LAYER   ROW   COL    START HEAD        END HEAD         IFACE           
 ----------------------------------------------------------------------------------
      1      4      1      1       110.2           110.2           0.000    
      2      5      1      1       110.2           110.2           0.000    
      3      4      1      2       110.2           110.2           0.000    
      4      5      1      2       110.2           110.2           0.000    
      5      4      1      3       110.2           110.2           0.000    
      6      5      1      3       110.2           110.2           0.000    
      7      4      1      4       110.2           110.2           0.000    
      8      5      1      4       110.2           110.2           0.000    
      9      4      1      5       110.2           110.2           0.000    
     10      5      1      5       110.2           110.2           0.000    
     11      4      1      6       110.2           110.2           0.000    
     12      5      1      6       110.2           110.2           0.000    
     13      4      1      7       110.2           110.2           0.000    
     14      5      1      7       110.2           110.2           0.000    
     15      4      1      8       110.2           110.2           0.000    
     16      5      1      8       110.2           110.2           0.000    
     17      4      1      9       110.2           110.2           0.000    
     18      5      1      9       110.2           110.2           0.000    
     19      4      1     10       110.2           110.2           0.000    
     20      5      1     10       110.2           110.2           0.000    
     21      4      1     11       110.2           110.2           0.000    
     22      5      1     11       110.2           110.2           0.000    
     23      4      1     12       110.2           110.2           0.000    
     24      5      1     12       110.2           110.2           0.000    
     25      4      1     13       110.2           110.2           0.000    
     26      5      1     13       110.2           110.2           0.000    
     27      4      1     14       110.2           110.2           0.000    
     28      5      1     14       110.2           110.2           0.000    
     29      4      1     15       110.2           110.2           0.000    
     30      5      1     15       110.2           110.2           0.000    
     31      4      1     16       110.2           110.2           0.000    
     32      5      1     16       110.2           110.2           0.000    
     33      4      1     17       110.2           110.2           0.000    
     34      5      1     17       110.2           110.2           0.000    
     35      4     17     17       110.1           110.2           0.000    
     36      5     17     17       110.1           110.2           0.000    
     37      4     18     17       110.1           110.2           0.000    
     38      5     18     17       110.1           110.2           0.000    
     39      4     18     16       110.1           110.2           0.000    
     40      5     18     16       110.1           110.2           0.000    
     41      4     19     16       110.1           110.2           0.000    
     42      5     19     16       110.1           110.2           0.000    
     43      4     19     15       110.1           110.2           0.000    
     44      5     19     15       110.1           110.2           0.000    
     45      4     20     15       110.1           110.2           0.000    
     46      5     20     15       110.1           110.2           0.000    
     47      4     20     14       110.1           110.1           0.000    
     48      5     20     14       110.1           110.1           0.000    
     49      4     20     13       110.1           110.1           0.000    
     50      5     20     13       110.1           110.1           0.000    
     51      4     20     12       110.1           110.1           0.000    
     52      5     20     12       110.1           110.1           0.000    
     53      4     20     11       110.1           110.1           0.000    
     54      5     20     11       110.1           110.1           0.000    
     55      4     21     11       110.1           110.1           0.000    
     56      5     21     11       110.1           110.1           0.000    
     57      4     21     10       110.1           110.1           0.000    
     58      5     21     10       110.1           110.1           0.000    
     59      4     21      9       110.1           110.1           0.000    
     60      5     21      9       110.1           110.1           0.000    
     61      4     21      8       110.1           110.1           0.000    
     62      5     21      8       110.1           110.1           0.000    
     63      4     21      7       110.1           110.1           0.000    
     64      5     21      7       110.1           110.1           0.000    
     65      4     21      6       110.1           110.1           0.000    
     66      5     21      6       110.1           110.1           0.000    
     67      4     21      5       110.1           110.1           0.000    
     68      5     21      5       110.1           110.1           0.000    
     69      4     22      5       110.1           110.1           0.000    
     70      5     22      5       110.1           110.1           0.000    
     71      4     22      4       110.1           110.1           0.000    
     72      5     22      4       110.1           110.1           0.000    
     73      4     22      3       110.1           110.1           0.000    
     74      5     22      3       110.1           110.1           0.000    
     75      4     22      2       110.1           110.1           0.000    
     76      5     22      2       110.1           110.1           0.000    
     77      4     22      1       110.1           110.1           0.000    
     78      5     22      1       110.1           110.1           0.000    


     78 TIME-VARIANT SPECIFIED-HEAD CELLS

 SOLVING FOR HEAD 


     3 CALLS TO PCG ROUTINE FOR TIME STEP   1 IN STRESS PERIOD   89
    45 TOTAL ITERATIONS

 MAXIMUM HEAD CHANGE FOR EACH ITERATION (1 INDICATES THE FIRST INNER ITERATION):

    HEAD CHANGE    HEAD CHANGE    HEAD CHANGE    HEAD CHANGE    HEAD CHANGE 
   LAYER,ROW,COL  LAYER,ROW,COL  LAYER,ROW,COL  LAYER,ROW,COL  LAYER,ROW,COL
 ---------------------------------------------------------------------------
  1  0.3294E-01  0 -0.2059E-01  0  0.1716E-01  0  0.1327E-01  0  0.1944E-01
   (  5, 21,  2)  (  5, 17,  1)  (  5, 15,  1)  (  5, 18,  1)  (  5, 19,  1)
  0  0.1163E-01  0  0.8565E-02  0 -0.7920E-02  0  0.5400E-02  0  0.4198E-02
   (  5, 17,  4)  (  5, 20,  2)  (  5, 17,  3)  (  5, 16,  3)  (  5, 19,  1)
  0  0.3333E-02  0  0.2091E-02  0 -0.2342E-02  0  0.1123E-02  0  0.9628E-03
   (  5, 14,  5)  (  5, 14,  1)  (  5, 16,  2)  (  5, 12,  5)  (  5, 19,  3)
  0 -0.7551E-03  0 -0.4514E-03  0 -0.5088E-03  0 -0.3912E-03  0 -0.2812E-03
   (  5, 18,  3)  (  5, 15,  3)  (  5, 16,  1)  (  5, 19,  3)  (  5, 17,  2)
  0 -0.1739E-03  0  0.1307E-03  0 -0.1154E-03  0  0.7452E-04  0  0.8531E-04
   (  5, 19,  3)  (  5, 16,  2)  (  5, 16,  1)  (  5, 18,  1)  (  5, 18,  5)
  0 -0.4979E-04  0 -0.3109E-04  0 -0.3170E-04  0  0.1493E-04  0 -0.1525E-04
   (  5, 17,  5)  (  5, 16,  2)  (  5, 18,  1)  (  5, 19,  2)  (  5,  6,  1)
  1  0.1339E-04  0  0.1637E-04  0 -0.1167E-04  0  0.1535E-04  0 -0.1185E-04
   (  5, 18,  4)  (  5, 14,  1)  (  5, 15,  2)  (  5, 17,  2)  (  5, 18,  1)
  0  0.9751E-05  0 -0.5385E-05  0 -0.5706E-05  0  0.3913E-05  0  0.2057E-05
   (  5,  6,  1)  (  5, 16,  3)  (  5, 20,  1)  (  5, 20,  2)  (  5,  9,  1)
  0  0.1297E-05  0 -0.1024E-05  0  0.1039E-05  0 -0.8202E-06  1  0.7238E-06
   (  5, 19,  5)  (  5, 18,  2)  (  5, 19,  2)  (  5, 15,  1)  (  5, 16,  1)

 MAXIMUM RESIDUAL FOR EACH ITERATION (1 INDICATES THE FIRST INNER ITERATION):

    RESIDUAL       RESIDUAL       RESIDUAL       RESIDUAL       RESIDUAL    
   LAYER,ROW,COL  LAYER,ROW,COL  LAYER,ROW,COL  LAYER,ROW,COL  LAYER,ROW,COL
 ---------------------------------------------------------------------------
  1 -0.7180E-03  0 -0.6637E-03  0 -0.6117E-03  0 -0.5415E-03  0 -0.4409E-03
   (  3, 17, 17)  (  3, 17, 17)  (  3, 17, 17)  (  3, 17, 17)  (  3, 17, 17)
  0 -0.3506E-03  0 -0.2438E-03  0 -0.1559E-03  0 -0.1039E-03  0 -0.6837E-04
   (  3, 17, 17)  (  3, 17, 17)  (  3, 20, 11)  (  3, 20, 11)  (  3, 20, 11)
  0 -0.4751E-04  0 -0.3552E-04  0 -0.2748E-04  0 -0.2093E-04  0 -0.1650E-04
   (  3, 20, 11)  (  3, 20, 11)  (  3, 20, 11)  (  4, 16, 17)  (  4, 16, 17)
  0 -0.1220E-04  0 -0.1077E-04  0 -0.7999E-05  0 -0.5885E-05  0 -0.4074E-05
   (  4, 16, 17)  (  4, 16, 17)  (  4, 16, 17)  (  4, 16, 17)  (  4, 16, 17)
  0 -0.2808E-05  0 -0.2201E-05  0  0.1839E-05  0  0.1707E-05  0  0.1183E-05
   (  4, 16, 17)  (  4, 16, 17)  (  3, 21,  6)  (  3, 21,  6)  (  3, 21,  6)
  0  0.7895E-06  0  0.4853E-06  0  0.2942E-06  0  0.2495E-06  0  0.1564E-06
   (  3, 21,  6)  (  3, 21,  6)  (  3, 21,  6)  (  3, 21,  6)  (  3, 21,  6)
  1  0.1368E-06  0  0.1145E-06  0  0.1019E-06  0 -0.7889E-07  0 -0.6838E-07
   (  3, 21,  6)  (  3, 21,  6)  (  3, 21,  6)  (  4, 16, 17)  (  4, 16, 17)
  0 -0.4458E-07  0  0.4400E-07  0  0.3733E-07  0  0.3012E-07  0  0.1898E-07
   (  4, 16, 17)  (  4, 18, 14)  (  4, 18, 14)  (  4, 18, 14)  (  4, 18, 14)
  0 -0.1487E-07  0 -0.1128E-07  0 -0.8724E-08  0 -0.7776E-08  1 -0.7543E-08
   (  4, 20,  2)  (  4, 20,  2)  (  4, 16, 17)  (  4, 16, 17)  (  4, 16, 17)



 OUTPUT CONTROL FOR STRESS PERIOD   89   TIME STEP    1
    SAVE HEAD FOR ALL LAYERS
    SAVE DRAWDOWN FOR ALL LAYERS
    SAVE BUDGET
    PRINT BUDGET
 UBDSV1 SAVING "         STORAGE" ON UNIT   9 AT TIME STEP  1, STRESS PERIOD  89
 UBDSV2 SAVING "   CONSTANT HEAD" ON UNIT   9 AT TIME STEP  1, STRESS PERIOD  89
 UBDSV1 SAVING "FLOW RIGHT FACE " ON UNIT   9 AT TIME STEP  1, STRESS PERIOD  89
 UBDSV1 SAVING "FLOW FRONT FACE " ON UNIT   9 AT TIME STEP  1, STRESS PERIOD  89
 UBDSV1 SAVING "FLOW LOWER FACE " ON UNIT   9 AT TIME STEP  1, STRESS PERIOD  89
 UBDSV3 SAVING "        RECHARGE" ON UNIT   9 AT TIME STEP  1, STRESS PERIOD  89

 HEAD WILL BE SAVED ON UNIT   37 AT END OF TIME STEP    1, STRESS PERIOD   89

 DRAWDOWN WILL BE SAVED ON UNIT   38 AT END OF TIME STEP    1, STRESS PERIOD   89
1
  VOLUMETRIC BUDGET FOR ENTIRE MODEL AT END OF TIME STEP    1, STRESS PERIOD  89
  ------------------------------------------------------------------------------

     CUMULATIVE VOLUMES      L**3       RATES FOR THIS TIME STEP      L**3/T
     ------------------                 ------------------------

           IN:                                      IN:
           ---                                      ---
             STORAGE =       12111.7080               STORAGE =       3.5758E-05
       CONSTANT HEAD =       22976.9395         CONSTANT HEAD =       9.8174E-04
            RECHARGE =        1022.5785              RECHARGE =       9.7813E-05

            TOTAL IN =       36111.2266              TOTAL IN =       1.1153E-03

          OUT:                                     OUT:
          ----                                     ----
             STORAGE =       10006.0479               STORAGE =       4.2461E-04
       CONSTANT HEAD =       26106.1602         CONSTANT HEAD =       6.9082E-04
            RECHARGE =           0.0000              RECHARGE =           0.0000

           TOTAL OUT =       36112.2070             TOTAL OUT =       1.1154E-03

            IN - OUT =          -0.9805              IN - OUT =      -1.1409E-07

 PERCENT DISCREPANCY =          -0.00     PERCENT DISCREPANCY =          -0.01






         TIME SUMMARY AT END OF TIME STEP    1 IN STRESS PERIOD   89
                    SECONDS     MINUTES      HOURS       DAYS        YEARS
                    -----------------------------------------------------------
   TIME STEP LENGTH  86400.      1440.0      24.000      1.0000     2.73785E-03
 STRESS PERIOD TIME  86400.      1440.0      24.000      1.0000     2.73785E-03
         TOTAL TIME 1.04544E+07 1.74240E+05  2904.0      121.00     0.33128    
1
1
                            STRESS PERIOD NO.   90, LENGTH =   86400.00    
                            -----------------------------------------------

                              NUMBER OF TIME STEPS =     1

                               MULTIPLIER FOR DELT =     1.000

                            INITIAL TIME STEP SIZE =   86400.00    

 REUSING RECH FROM LAST STRESS PERIOD

 CHD NO.   LAYER   ROW   COL    START HEAD        END HEAD         IFACE           
 ----------------------------------------------------------------------------------
      1      4      1      1       110.2           110.2           0.000    
      2      5      1      1       110.2           110.2           0.000    
      3      4      1      2       110.2           110.2           0.000    
      4      5      1      2       110.2           110.2           0.000    
      5      4      1      3       110.2           110.2           0.000    
      6      5      1      3       110.2           110.2           0.000    
      7      4      1      4       110.2           110.2           0.000    
      8      5      1      4       110.2           110.2           0.000    
      9      4      1      5       110.2           110.2           0.000    
     10      5      1      5       110.2           110.2           0.000    
     11      4      1      6       110.2           110.2           0.000    
     12      5      1      6       110.2           110.2           0.000    
     13      4      1      7       110.2           110.2           0.000    
     14      5      1      7       110.2           110.2           0.000    
     15      4      1      8       110.2           110.2           0.000    
     16      5      1      8       110.2           110.2           0.000    
     17      4      1      9       110.2           110.2           0.000    
     18      5      1      9       110.2           110.2           0.000    
     19      4      1     10       110.2           110.2           0.000    
     20      5      1     10       110.2           110.2           0.000    
     21      4      1     11       110.2           110.2           0.000    
     22      5      1     11       110.2           110.2           0.000    
     23      4      1     12       110.2           110.2           0.000    
     24      5      1     12       110.2           110.2           0.000    
     25      4      1     13       110.2           110.2           0.000    
     26      5      1     13       110.2           110.2           0.000    
     27      4      1     14       110.2           110.2           0.000    
     28      5      1     14       110.2           110.2           0.000    
     29      4      1     15       110.2           110.2           0.000    
     30      5      1     15       110.2           110.2           0.000    
     31      4      1     16       110.2           110.2           0.000    
     32      5      1     16       110.2           110.2           0.000    
     33      4      1     17       110.2           110.2           0.000    
     34      5      1     17       110.2           110.2           0.000    
     35      4     17     17       110.2           110.1           0.000    
     36      5     17     17       110.2           110.1           0.000    
     37      4     18     17       110.2           110.1           0.000    
     38      5     18     17       110.2           110.1           0.000    
     39      4     18     16       110.2           110.1           0.000    
     40      5     18     16       110.2           110.1           0.000    
     41      4     19     16       110.2           110.1           0.000    
     42      5     19     16       110.2           110.1           0.000    
     43      4     19     15       110.2           110.1           0.000    
     44      5     19     15       110.2           110.1           0.000    
     45      4     20     15       110.2           110.1           0.000    
     46      5     20     15       110.2           110.1           0.000    
     47      4     20     14       110.1           110.1           0.000    
     48      5     20     14       110.1           110.1           0.000    
     49      4     20     13       110.1           110.1           0.000    
     50      5     20     13       110.1           110.1           0.000    
     51      4     20     12       110.1           110.1           0.000    
     52      5     20     12       110.1           110.1           0.000    
     53      4     20     11       110.1           110.1           0.000    
     54      5     20     11       110.1           110.1           0.000    
     55      4     21     11       110.1           110.1           0.000    
     56      5     21     11       110.1           110.1           0.000    
     57      4     21     10       110.1           110.1           0.000    
     58      5     21     10       110.1           110.1           0.000    
     59      4     21      9       110.1           110.1           0.000    
     60      5     21      9       110.1           110.1           0.000    
     61      4     21      8       110.1           110.1           0.000    
     62      5     21      8       110.1           110.1           0.000    
     63      4     21      7       110.1           110.1           0.000    
     64      5     21      7       110.1           110.1           0.000    
     65      4     21      6       110.1           110.1           0.000    
     66      5     21      6       110.1           110.1           0.000    
     67      4     21      5       110.1           110.1           0.000    
     68      5     21      5       110.1           110.1           0.000    
     69      4     22      5       110.1           110.1           0.000    
     70      5     22      5       110.1           110.1           0.000    
     71      4     22      4       110.1           110.1           0.000    
     72      5     22      4       110.1           110.1           0.000    
     73      4     22      3       110.1           110.1           0.000    
     74      5     22      3       110.1           110.1           0.000    
     75      4     22      2       110.1           110.1           0.000    
     76      5     22      2       110.1           110.1           0.000    
     77      4     22      1       110.1           110.1           0.000    
     78      5     22      1       110.1           110.1           0.000    


     78 TIME-VARIANT SPECIFIED-HEAD CELLS

 SOLVING FOR HEAD 


     3 CALLS TO PCG ROUTINE FOR TIME STEP   1 IN STRESS PERIOD   90
    45 TOTAL ITERATIONS

 MAXIMUM HEAD CHANGE FOR EACH ITERATION (1 INDICATES THE FIRST INNER ITERATION):

    HEAD CHANGE    HEAD CHANGE    HEAD CHANGE    HEAD CHANGE    HEAD CHANGE 
   LAYER,ROW,COL  LAYER,ROW,COL  LAYER,ROW,COL  LAYER,ROW,COL  LAYER,ROW,COL
 ---------------------------------------------------------------------------
  1 -0.4193E-01  0  0.2834E-01  0 -0.2443E-01  0 -0.1928E-01  0 -0.2683E-01
   (  5, 21,  2)  (  5, 17,  1)  (  5, 16,  2)  (  5, 17,  1)  (  5, 19,  1)
  0 -0.1609E-01  0  0.1378E-01  0  0.1013E-01  0 -0.8999E-02  0  0.5179E-02
   (  5, 20,  1)  (  5, 18,  1)  (  5, 19,  1)  (  5, 18,  1)  (  5, 18,  4)
  0 -0.4319E-02  0  0.3753E-02  0 -0.2275E-02  0 -0.1983E-02  0 -0.1313E-02
   (  5, 17,  3)  (  5, 16,  3)  (  5, 15,  1)  (  5, 12,  5)  (  5, 19,  3)
  0  0.1185E-02  0 -0.8982E-03  0  0.6496E-03  0  0.7565E-03  0 -0.2460E-03
   (  5, 18,  2)  (  5, 18,  1)  (  5, 16,  1)  (  5, 19,  3)  (  5, 18,  2)
  0 -0.2461E-03  0  0.1414E-03  0 -0.1702E-03  0 -0.1326E-03  0 -0.8421E-04
   (  5, 17,  5)  (  5, 15,  1)  (  5, 16,  2)  (  5, 19,  2)  (  5, 18,  5)
  0 -0.6490E-04  0  0.4290E-04  0  0.2720E-04  0 -0.3565E-04  0  0.1650E-04
   (  5, 20,  3)  (  5, 15,  4)  (  5, 18,  1)  (  5, 19,  2)  (  5, 14,  1)
  1 -0.1342E-04  0 -0.1370E-04  0  0.1084E-04  0  0.8935E-05  0 -0.1067E-04
   (  5, 15,  1)  (  5,  6,  1)  (  5, 14,  2)  (  5, 19,  1)  (  5, 19,  1)
  0  0.7286E-05  0 -0.5657E-05  0  0.3703E-05  0 -0.2856E-05  0  0.2039E-05
   (  5, 20,  1)  (  5, 13,  4)  (  5, 15,  4)  (  5, 12,  5)  (  5, 12,  4)
  0 -0.1774E-05  0  0.1803E-05  0 -0.1243E-05  0 -0.9458E-06  1  0.5388E-06
   (  5, 14,  1)  (  5, 16,  3)  (  5, 17,  4)  (  5, 19,  2)  (  5, 19,  3)

 MAXIMUM RESIDUAL FOR EACH ITERATION (1 INDICATES THE FIRST INNER ITERATION):

    RESIDUAL       RESIDUAL       RESIDUAL       RESIDUAL       RESIDUAL    
   LAYER,ROW,COL  LAYER,ROW,COL  LAYER,ROW,COL  LAYER,ROW,COL  LAYER,ROW,COL
 ---------------------------------------------------------------------------
  1  0.1273E-02  0  0.1147E-02  0  0.1030E-02  0  0.8690E-03  0  0.6857E-03
   (  3, 17, 17)  (  3, 17, 17)  (  3, 17, 17)  (  3, 17, 17)  (  3, 17, 17)
  0  0.5075E-03  0  0.3392E-03  0  0.2071E-03  0  0.1231E-03  0  0.7845E-04
   (  3, 17, 17)  (  3, 17, 17)  (  3, 17, 17)  (  3, 20, 11)  (  3, 20, 11)
  0  0.5487E-04  0  0.4670E-04  0  0.4321E-04  0  0.3470E-04  0  0.2707E-04
   (  4, 16, 17)  (  4, 16, 17)  (  4, 16, 17)  (  4, 16, 17)  (  4, 16, 17)
  0  0.2266E-04  0  0.1843E-04  0  0.1356E-04  0  0.9542E-05  0  0.6537E-05
   (  4, 16, 17)  (  4, 16, 17)  (  4, 16, 17)  (  4, 16, 17)  (  4, 16, 17)
  0  0.4707E-05  0  0.4350E-05  0  0.3377E-05  0  0.2681E-05  0  0.1679E-05
   (  4, 16, 17)  (  4, 16, 17)  (  4, 16, 17)  (  4, 16, 17)  (  4, 16, 17)
  0  0.1010E-05  0 -0.5542E-06  0 -0.4806E-06  0 -0.2466E-06  0  0.1815E-06
   (  4, 16, 17)  (  3, 21,  6)  (  3, 21,  6)  (  3, 21,  6)  (  3, 17, 17)
  1 -0.1822E-06  0 -0.1573E-06  0  0.1359E-06  0  0.1263E-06  0  0.1112E-06
   (  3, 21,  5)  (  3, 21,  5)  (  4, 16, 17)  (  4, 16, 17)  (  4, 16, 17)
  0  0.9387E-07  0  0.8125E-07  0  0.5748E-07  0  0.4345E-07  0  0.3047E-07
   (  4, 16, 17)  (  4, 16, 17)  (  4, 16, 17)  (  4, 16, 17)  (  4, 16, 17)
  0  0.2747E-07  0  0.2165E-07  0  0.1732E-07  0  0.1318E-07  1  0.1279E-07
   (  4, 16, 17)  (  4, 16, 17)  (  4, 16, 17)  (  4, 16, 17)  (  4, 16, 17)



 OUTPUT CONTROL FOR STRESS PERIOD   90   TIME STEP    1
    SAVE HEAD FOR ALL LAYERS
    SAVE DRAWDOWN FOR ALL LAYERS
    SAVE BUDGET
    PRINT BUDGET
 UBDSV1 SAVING "         STORAGE" ON UNIT   9 AT TIME STEP  1, STRESS PERIOD  90
 UBDSV2 SAVING "   CONSTANT HEAD" ON UNIT   9 AT TIME STEP  1, STRESS PERIOD  90
 UBDSV1 SAVING "FLOW RIGHT FACE " ON UNIT   9 AT TIME STEP  1, STRESS PERIOD  90
 UBDSV1 SAVING "FLOW FRONT FACE " ON UNIT   9 AT TIME STEP  1, STRESS PERIOD  90
 UBDSV1 SAVING "FLOW LOWER FACE " ON UNIT   9 AT TIME STEP  1, STRESS PERIOD  90
 UBDSV3 SAVING "        RECHARGE" ON UNIT   9 AT TIME STEP  1, STRESS PERIOD  90

 HEAD WILL BE SAVED ON UNIT   37 AT END OF TIME STEP    1, STRESS PERIOD   90

 DRAWDOWN WILL BE SAVED ON UNIT   38 AT END OF TIME STEP    1, STRESS PERIOD   90
1
  VOLUMETRIC BUDGET FOR ENTIRE MODEL AT END OF TIME STEP    1, STRESS PERIOD  90
  ------------------------------------------------------------------------------

     CUMULATIVE VOLUMES      L**3       RATES FOR THIS TIME STEP      L**3/T
     ------------------                 ------------------------

           IN:                                      IN:
           ---                                      ---
             STORAGE =       12141.7158               STORAGE =       3.4731E-04
       CONSTANT HEAD =       23053.1855         CONSTANT HEAD =       8.8249E-04
            RECHARGE =        1031.0295              RECHARGE =       9.7813E-05

            TOTAL IN =       36225.9336              TOTAL IN =       1.3276E-03

          OUT:                                     OUT:
          ----                                     ----
             STORAGE =       10006.0479               STORAGE =           0.0000
       CONSTANT HEAD =       26220.8750         CONSTANT HEAD =       1.3277E-03
            RECHARGE =           0.0000              RECHARGE =           0.0000

           TOTAL OUT =       36226.9219             TOTAL OUT =       1.3277E-03

            IN - OUT =          -0.9883              IN - OUT =      -9.9652E-08

 PERCENT DISCREPANCY =          -0.00     PERCENT DISCREPANCY =          -0.01






         TIME SUMMARY AT END OF TIME STEP    1 IN STRESS PERIOD   90
                    SECONDS     MINUTES      HOURS       DAYS        YEARS
                    -----------------------------------------------------------
   TIME STEP LENGTH  86400.      1440.0      24.000      1.0000     2.73785E-03
 STRESS PERIOD TIME  86400.      1440.0      24.000      1.0000     2.73785E-03
         TOTAL TIME 1.05408E+07 1.75680E+05  2928.0      122.00     0.33402    
1
1
                            STRESS PERIOD NO.   91, LENGTH =   345600.0    
                            -----------------------------------------------

                              NUMBER OF TIME STEPS =     4

                               MULTIPLIER FOR DELT =     1.000

                            INITIAL TIME STEP SIZE =   86400.00    

 REUSING RECH FROM LAST STRESS PERIOD

 CHD NO.   LAYER   ROW   COL    START HEAD        END HEAD         IFACE           
 ----------------------------------------------------------------------------------
      1      4      1      1       110.2           110.3           0.000    
      2      5      1      1       110.2           110.3           0.000    
      3      4      1      2       110.2           110.3           0.000    
      4      5      1      2       110.2           110.3           0.000    
      5      4      1      3       110.2           110.3           0.000    
      6      5      1      3       110.2           110.3           0.000    
      7      4      1      4       110.2           110.3           0.000    
      8      5      1      4       110.2           110.3           0.000    
      9      4      1      5       110.2           110.3           0.000    
     10      5      1      5       110.2           110.3           0.000    
     11      4      1      6       110.2           110.3           0.000    
     12      5      1      6       110.2           110.3           0.000    
     13      4      1      7       110.2           110.3           0.000    
     14      5      1      7       110.2           110.3           0.000    
     15      4      1      8       110.2           110.3           0.000    
     16      5      1      8       110.2           110.3           0.000    
     17      4      1      9       110.2           110.3           0.000    
     18      5      1      9       110.2           110.3           0.000    
     19      4      1     10       110.2           110.3           0.000    
     20      5      1     10       110.2           110.3           0.000    
     21      4      1     11       110.2           110.3           0.000    
     22      5      1     11       110.2           110.3           0.000    
     23      4      1     12       110.2           110.3           0.000    
     24      5      1     12       110.2           110.3           0.000    
     25      4      1     13       110.2           110.3           0.000    
     26      5      1     13       110.2           110.3           0.000    
     27      4      1     14       110.2           110.3           0.000    
     28      5      1     14       110.2           110.3           0.000    
     29      4      1     15       110.2           110.3           0.000    
     30      5      1     15       110.2           110.3           0.000    
     31      4      1     16       110.2           110.3           0.000    
     32      5      1     16       110.2           110.3           0.000    
     33      4      1     17       110.2           110.3           0.000    
     34      5      1     17       110.2           110.3           0.000    
     35      4     17     17       110.1           110.3           0.000    
     36      5     17     17       110.1           110.3           0.000    
     37      4     18     17       110.1           110.3           0.000    
     38      5     18     17       110.1           110.3           0.000    
     39      4     18     16       110.1           110.3           0.000    
     40      5     18     16       110.1           110.3           0.000    
     41      4     19     16       110.1           110.3           0.000    
     42      5     19     16       110.1           110.3           0.000    
     43      4     19     15       110.1           110.3           0.000    
     44      5     19     15       110.1           110.3           0.000    
     45      4     20     15       110.1           110.3           0.000    
     46      5     20     15       110.1           110.3           0.000    
     47      4     20     14       110.1           110.3           0.000    
     48      5     20     14       110.1           110.3           0.000    
     49      4     20     13       110.1           110.3           0.000    
     50      5     20     13       110.1           110.3           0.000    
     51      4     20     12       110.1           110.2           0.000    
     52      5     20     12       110.1           110.2           0.000    
     53      4     20     11       110.1           110.2           0.000    
     54      5     20     11       110.1           110.2           0.000    
     55      4     21     11       110.1           110.2           0.000    
     56      5     21     11       110.1           110.2           0.000    
     57      4     21     10       110.1           110.2           0.000    
     58      5     21     10       110.1           110.2           0.000    
     59      4     21      9       110.1           110.2           0.000    
     60      5     21      9       110.1           110.2           0.000    
     61      4     21      8       110.1           110.2           0.000    
     62      5     21      8       110.1           110.2           0.000    
     63      4     21      7       110.1           110.2           0.000    
     64      5     21      7       110.1           110.2           0.000    
     65      4     21      6       110.1           110.2           0.000    
     66      5     21      6       110.1           110.2           0.000    
     67      4     21      5       110.1           110.2           0.000    
     68      5     21      5       110.1           110.2           0.000    
     69      4     22      5       110.1           110.2           0.000    
     70      5     22      5       110.1           110.2           0.000    
     71      4     22      4       110.1           110.2           0.000    
     72      5     22      4       110.1           110.2           0.000    
     73      4     22      3       110.1           110.2           0.000    
     74      5     22      3       110.1           110.2           0.000    
     75      4     22      2       110.1           110.2           0.000    
     76      5     22      2       110.1           110.2           0.000    
     77      4     22      1       110.1           110.2           0.000    
     78      5     22      1       110.1           110.2           0.000    


     78 TIME-VARIANT SPECIFIED-HEAD CELLS

 SOLVING FOR HEAD 


     3 CALLS TO PCG ROUTINE FOR TIME STEP   1 IN STRESS PERIOD   91
    47 TOTAL ITERATIONS

 MAXIMUM HEAD CHANGE FOR EACH ITERATION (1 INDICATES THE FIRST INNER ITERATION):

    HEAD CHANGE    HEAD CHANGE    HEAD CHANGE    HEAD CHANGE    HEAD CHANGE 
   LAYER,ROW,COL  LAYER,ROW,COL  LAYER,ROW,COL  LAYER,ROW,COL  LAYER,ROW,COL
 ---------------------------------------------------------------------------
  1  0.6229E-01  0 -0.4151E-01  0  0.3599E-01  0  0.2822E-01  0  0.3919E-01
   (  5, 21,  2)  (  5, 17,  1)  (  5, 16,  2)  (  5, 17,  1)  (  5, 19,  1)
  0  0.2308E-01  0 -0.2025E-01  0 -0.1506E-01  0  0.1323E-01  0 -0.7752E-02
   (  5, 20,  1)  (  5, 18,  1)  (  5, 19,  1)  (  5, 18,  1)  (  5, 18,  4)
  0  0.6383E-02  0 -0.5646E-02  0  0.3343E-02  0  0.2857E-02  0  0.1877E-02
   (  5, 17,  3)  (  5, 16,  3)  (  5, 15,  1)  (  5, 12,  5)  (  5, 19,  3)
  0 -0.1918E-02  0  0.1045E-02  0 -0.1023E-02  0 -0.1103E-02  0 -0.3617E-03
   (  5, 18,  2)  (  5, 18,  1)  (  5, 16,  1)  (  5, 19,  3)  (  5, 17,  2)
  0  0.3590E-03  0 -0.2922E-03  0  0.2696E-03  0  0.2321E-03  0  0.1223E-03
   (  5, 20,  1)  (  5, 15,  1)  (  5, 16,  2)  (  5, 19,  2)  (  5, 18,  5)
  0  0.9167E-04  0 -0.5687E-04  0 -0.5665E-04  0  0.5063E-04  0 -0.2747E-04
   (  5, 20,  3)  (  5, 15,  4)  (  5, 18,  1)  (  5, 19,  2)  (  5, 15,  1)
  1  0.2395E-04  0  0.2215E-04  0  0.2185E-04  0 -0.1191E-04  0  0.1302E-04
   (  5, 15,  1)  (  5, 13,  3)  (  5, 18,  1)  (  5, 18,  3)  (  5, 12,  4)
  0 -0.8193E-05  0  0.9505E-05  0 -0.8485E-05  0  0.4515E-05  0  0.3605E-05
   (  5, 12,  2)  (  5, 19,  1)  (  5, 20,  1)  (  5, 11,  5)  (  5, 17,  1)
  0 -0.2491E-05  0  0.2710E-05  0 -0.1607E-05  0  0.1729E-05  0 -0.1137E-05
   (  5, 15,  1)  (  5, 16,  2)  (  5, 15,  4)  (  5, 17,  5)  (  5, 19,  3)
  0  0.6496E-06  1 -0.5099E-06
   (  5, 18,  3)  (  5, 17,  1)

 MAXIMUM RESIDUAL FOR EACH ITERATION (1 INDICATES THE FIRST INNER ITERATION):

    RESIDUAL       RESIDUAL       RESIDUAL       RESIDUAL       RESIDUAL    
   LAYER,ROW,COL  LAYER,ROW,COL  LAYER,ROW,COL  LAYER,ROW,COL  LAYER,ROW,COL
 ---------------------------------------------------------------------------
  1 -0.1881E-02  0 -0.1699E-02  0 -0.1531E-02  0 -0.1303E-02  0 -0.1040E-02
   (  3, 17, 17)  (  3, 17, 17)  (  3, 17, 17)  (  3, 17, 17)  (  3, 17, 17)
  0 -0.7806E-03  0 -0.5253E-03  0 -0.3207E-03  0 -0.1923E-03  0 -0.1229E-03
   (  3, 17, 17)  (  3, 17, 17)  (  3, 17, 17)  (  3, 20, 11)  (  3, 20, 11)
  0 -0.8098E-04  0 -0.6819E-04  0 -0.6325E-04  0 -0.5114E-04  0 -0.4006E-04
   (  3, 20, 11)  (  4, 16, 17)  (  4, 16, 17)  (  4, 16, 17)  (  4, 16, 17)
  0 -0.3088E-04  0 -0.2747E-04  0 -0.2042E-04  0 -0.1455E-04  0 -0.1006E-04
   (  4, 16, 17)  (  4, 16, 17)  (  4, 16, 17)  (  4, 16, 17)  (  4, 16, 17)
  0 -0.8188E-05  0 -0.7079E-05  0 -0.6034E-05  0 -0.4136E-05  0 -0.2572E-05
   (  4, 16, 17)  (  4, 16, 17)  (  4, 16, 17)  (  4, 16, 17)  (  4, 16, 17)
  0 -0.1548E-05  0 -0.8239E-06  0 -0.5668E-06  0 -0.3842E-06  0 -0.3216E-06
   (  4, 16, 17)  (  4, 16, 17)  (  4, 16, 17)  (  4, 16, 17)  (  3, 17, 17)
  1 -0.3694E-06  0 -0.3327E-06  0 -0.3066E-06  0 -0.2554E-06  0 -0.2074E-06
   (  3, 17, 17)  (  3, 17, 17)  (  3, 17, 17)  (  3, 17, 17)  (  3, 17, 17)
  0 -0.1577E-06  0 -0.1375E-06  0 -0.1001E-06  0 -0.7508E-07  0 -0.5783E-07
   (  3, 17, 17)  (  3, 17, 17)  (  3, 17, 17)  (  3, 17, 17)  (  3, 17, 17)
  0 -0.5367E-07  0 -0.3935E-07  0 -0.3160E-07  0 -0.2501E-07  0 -0.2043E-07
   (  3, 17, 17)  (  3, 17, 17)  (  3, 17, 17)  (  3, 17, 17)  (  3, 17, 17)
  0 -0.1779E-07  1 -0.1760E-07
   (  3, 17, 17)  (  3, 17, 17)



 OUTPUT CONTROL FOR STRESS PERIOD   91   TIME STEP    1
    SAVE HEAD FOR ALL LAYERS
    SAVE DRAWDOWN FOR ALL LAYERS
    SAVE BUDGET
    PRINT BUDGET
 UBDSV1 SAVING "         STORAGE" ON UNIT   9 AT TIME STEP  1, STRESS PERIOD  91
 UBDSV2 SAVING "   CONSTANT HEAD" ON UNIT   9 AT TIME STEP  1, STRESS PERIOD  91
 UBDSV1 SAVING "FLOW RIGHT FACE " ON UNIT   9 AT TIME STEP  1, STRESS PERIOD  91
 UBDSV1 SAVING "FLOW FRONT FACE " ON UNIT   9 AT TIME STEP  1, STRESS PERIOD  91
 UBDSV1 SAVING "FLOW LOWER FACE " ON UNIT   9 AT TIME STEP  1, STRESS PERIOD  91
 UBDSV3 SAVING "        RECHARGE" ON UNIT   9 AT TIME STEP  1, STRESS PERIOD  91

 HEAD WILL BE SAVED ON UNIT   37 AT END OF TIME STEP    1, STRESS PERIOD   91

 DRAWDOWN WILL BE SAVED ON UNIT   38 AT END OF TIME STEP    1, STRESS PERIOD   91
1
  VOLUMETRIC BUDGET FOR ENTIRE MODEL AT END OF TIME STEP    1, STRESS PERIOD  91
  ------------------------------------------------------------------------------

     CUMULATIVE VOLUMES      L**3       RATES FOR THIS TIME STEP      L**3/T
     ------------------                 ------------------------

           IN:                                      IN:
           ---                                      ---
             STORAGE =       12141.7158               STORAGE =           0.0000
       CONSTANT HEAD =       23137.8809         CONSTANT HEAD =       9.8028E-04
            RECHARGE =        1039.4806              RECHARGE =       9.7813E-05

            TOTAL IN =       36319.0781              TOTAL IN =       1.0781E-03

          OUT:                                     OUT:
          ----                                     ----
             STORAGE =       10050.1992               STORAGE =       5.1101E-04
       CONSTANT HEAD =       26269.8789         CONSTANT HEAD =       5.6718E-04
            RECHARGE =           0.0000              RECHARGE =           0.0000

           TOTAL OUT =       36320.0781             TOTAL OUT =       1.0782E-03

            IN - OUT =          -1.0000              IN - OUT =      -9.8371E-08

 PERCENT DISCREPANCY =          -0.00     PERCENT DISCREPANCY =          -0.01






         TIME SUMMARY AT END OF TIME STEP    1 IN STRESS PERIOD   91
                    SECONDS     MINUTES      HOURS       DAYS        YEARS
                    -----------------------------------------------------------
   TIME STEP LENGTH  86400.      1440.0      24.000      1.0000     2.73785E-03
 STRESS PERIOD TIME  86400.      1440.0      24.000      1.0000     2.73785E-03
         TOTAL TIME 1.06272E+07 1.77120E+05  2952.0      123.00     0.33676    
1

 SOLVING FOR HEAD 
     3 CALLS TO PCG ROUTINE FOR TIME STEP   2 IN STRESS PERIOD   91
    47 TOTAL ITERATIONS

 MAXIMUM HEAD CHANGE FOR EACH ITERATION (1 INDICATES THE FIRST INNER ITERATION):

    HEAD CHANGE    HEAD CHANGE    HEAD CHANGE    HEAD CHANGE    HEAD CHANGE 
   LAYER,ROW,COL  LAYER,ROW,COL  LAYER,ROW,COL  LAYER,ROW,COL  LAYER,ROW,COL
 ---------------------------------------------------------------------------
  1  0.6554E-01  0 -0.4289E-01  0  0.3767E-01  0  0.2959E-01  0  0.4007E-01
   (  5, 21,  2)  (  5, 17,  1)  (  5, 16,  2)  (  5, 17,  1)  (  5, 19,  1)
  0  0.2346E-01  0 -0.2070E-01  0 -0.1526E-01  0  0.1382E-01  0 -0.8077E-02
   (  5, 20,  1)  (  5, 18,  1)  (  5, 19,  1)  (  5, 18,  1)  (  5, 18,  4)
  0  0.6301E-02  0 -0.4043E-02  0 -0.2675E-02  0  0.2767E-02  0  0.1761E-02
   (  5, 17,  3)  (  5, 13,  5)  (  5, 16,  2)  (  5, 12,  5)  (  5, 19,  3)
  0  0.1202E-02  0 -0.1021E-02  0 -0.8157E-03  0 -0.1157E-02  0  0.3946E-03
   (  5, 18,  1)  (  5, 18,  2)  (  5, 16,  3)  (  5, 19,  3)  (  5, 18,  3)
  0  0.3705E-03  0 -0.2525E-03  0 -0.2239E-03  0  0.2583E-03  0  0.1324E-03
   (  5, 20,  1)  (  5, 19,  1)  (  5, 16,  1)  (  5, 19,  2)  (  5, 18,  5)
  0  0.8934E-04  0  0.5927E-04  0  0.5480E-04  0 -0.5280E-04  0 -0.3339E-04
   (  5, 20,  3)  (  5, 14,  2)  (  5, 19,  2)  (  5, 18,  1)  (  5,  6,  1)
  1 -0.2620E-04  0  0.2379E-04  0 -0.2021E-04  0  0.1885E-04  0  0.2315E-04
   (  5, 16,  1)  (  5, 14,  1)  (  5, 15,  3)  (  5, 15,  4)  (  5, 19,  1)
  0 -0.1648E-04  0  0.8515E-05  0 -0.8616E-05  0  0.5326E-05  0 -0.4820E-05
   (  5, 20,  1)  (  5, 19,  1)  (  5,  8,  1)  (  5, 16,  4)  (  5, 17,  5)
  0 -0.3209E-05  0  0.2418E-05  0 -0.2331E-05  0  0.1671E-05  0  0.1108E-05
   (  5, 15,  2)  (  5, 17,  2)  (  5, 18,  2)  (  5, 19,  2)  (  5, 16,  1)
  0  0.8249E-06  1 -0.5101E-06
   (  5, 18,  4)  (  5, 18,  4)

 MAXIMUM RESIDUAL FOR EACH ITERATION (1 INDICATES THE FIRST INNER ITERATION):

    RESIDUAL       RESIDUAL       RESIDUAL       RESIDUAL       RESIDUAL    
   LAYER,ROW,COL  LAYER,ROW,COL  LAYER,ROW,COL  LAYER,ROW,COL  LAYER,ROW,COL
 ---------------------------------------------------------------------------
  1 -0.1877E-02  0 -0.1696E-02  0 -0.1530E-02  0 -0.1308E-02  0 -0.1052E-02
   (  3, 17, 17)  (  3, 17, 17)  (  3, 17, 17)  (  3, 17, 17)  (  3, 17, 17)
  0 -0.7983E-03  0 -0.5405E-03  0 -0.3286E-03  0 -0.1945E-03  0 -0.1233E-03
   (  3, 17, 17)  (  3, 17, 17)  (  3, 17, 17)  (  3, 20, 11)  (  3, 20, 11)
  0 -0.8023E-04  0 -0.6490E-04  0 -0.6179E-04  0 -0.5032E-04  0 -0.3961E-04
   (  3, 20, 11)  (  4, 16, 17)  (  4, 16, 17)  (  4, 16, 17)  (  4, 16, 17)
  0 -0.3018E-04  0 -0.2724E-04  0 -0.2039E-04  0 -0.1469E-04  0 -0.1015E-04
   (  4, 16, 17)  (  4, 16, 17)  (  4, 16, 17)  (  4, 16, 17)  (  4, 16, 17)
  0 -0.7892E-05  0 -0.6338E-05  0 -0.5462E-05  0 -0.4116E-05  0  0.2553E-05
   (  4, 16, 17)  (  4, 16, 17)  (  4, 16, 17)  (  4, 16, 17)  (  3, 21,  6)
  0  0.1587E-05  0  0.8669E-06  0  0.6117E-06  0  0.3971E-06  0 -0.2740E-06
   (  3, 21,  6)  (  3, 21,  6)  (  3, 21,  6)  (  3, 21,  6)  (  3, 17, 17)
  1 -0.3235E-06  0 -0.3064E-06  0 -0.2475E-06  0 -0.2174E-06  0 -0.1857E-06
   (  3, 17, 17)  (  3, 17, 17)  (  3, 17, 17)  (  3, 17, 17)  (  3, 17, 17)
  0 -0.1356E-06  0 -0.1194E-06  0 -0.8647E-07  0 -0.6929E-07  0 -0.5454E-07
   (  3, 17, 17)  (  3, 17, 17)  (  3, 17, 17)  (  3, 17, 17)  (  3, 17, 17)
  0 -0.4437E-07  0 -0.4043E-07  0 -0.3233E-07  0 -0.2486E-07  0 -0.2013E-07
   (  3, 17, 17)  (  3, 17, 17)  (  3, 17, 17)  (  3, 17, 17)  (  3, 17, 17)
  0 -0.1611E-07  1 -0.1553E-07
   (  3, 17, 17)  (  3, 17, 17)



 OUTPUT CONTROL FOR STRESS PERIOD   91   TIME STEP    2
    SAVE HEAD FOR ALL LAYERS
    SAVE DRAWDOWN FOR ALL LAYERS
    SAVE BUDGET
    PRINT BUDGET
 UBDSV1 SAVING "         STORAGE" ON UNIT   9 AT TIME STEP  2, STRESS PERIOD  91
 UBDSV2 SAVING "   CONSTANT HEAD" ON UNIT   9 AT TIME STEP  2, STRESS PERIOD  91
 UBDSV1 SAVING "FLOW RIGHT FACE " ON UNIT   9 AT TIME STEP  2, STRESS PERIOD  91
 UBDSV1 SAVING "FLOW FRONT FACE " ON UNIT   9 AT TIME STEP  2, STRESS PERIOD  91
 UBDSV1 SAVING "FLOW LOWER FACE " ON UNIT   9 AT TIME STEP  2, STRESS PERIOD  91
 UBDSV3 SAVING "        RECHARGE" ON UNIT   9 AT TIME STEP  2, STRESS PERIOD  91

 HEAD WILL BE SAVED ON UNIT   37 AT END OF TIME STEP    2, STRESS PERIOD   91

 DRAWDOWN WILL BE SAVED ON UNIT   38 AT END OF TIME STEP    2, STRESS PERIOD   91
1
  VOLUMETRIC BUDGET FOR ENTIRE MODEL AT END OF TIME STEP    2, STRESS PERIOD  91
  ------------------------------------------------------------------------------

     CUMULATIVE VOLUMES      L**3       RATES FOR THIS TIME STEP      L**3/T
     ------------------                 ------------------------

           IN:                                      IN:
           ---                                      ---
             STORAGE =       12141.7158               STORAGE =           0.0000
       CONSTANT HEAD =       23221.4922         CONSTANT HEAD =       9.6772E-04
            RECHARGE =        1047.9316              RECHARGE =       9.7813E-05

            TOTAL IN =       36411.1406              TOTAL IN =       1.0655E-03

          OUT:                                     OUT:
          ----                                     ----
             STORAGE =       10115.2998               STORAGE =       7.5348E-04
       CONSTANT HEAD =       26296.8496         CONSTANT HEAD =       3.1215E-04
            RECHARGE =           0.0000              RECHARGE =           0.0000

           TOTAL OUT =       36412.1484             TOTAL OUT =       1.0656E-03

            IN - OUT =          -1.0078              IN - OUT =      -9.9419E-08

 PERCENT DISCREPANCY =          -0.00     PERCENT DISCREPANCY =          -0.01






         TIME SUMMARY AT END OF TIME STEP    2 IN STRESS PERIOD   91
                    SECONDS     MINUTES      HOURS       DAYS        YEARS
                    -----------------------------------------------------------
   TIME STEP LENGTH  86400.      1440.0      24.000      1.0000     2.73785E-03
 STRESS PERIOD TIME 1.72800E+05  2880.0      48.000      2.0000     5.47570E-03
         TOTAL TIME 1.07136E+07 1.78560E+05  2976.0      124.00     0.33949    
1

 SOLVING FOR HEAD 
     3 CALLS TO PCG ROUTINE FOR TIME STEP   3 IN STRESS PERIOD   91
    47 TOTAL ITERATIONS

 MAXIMUM HEAD CHANGE FOR EACH ITERATION (1 INDICATES THE FIRST INNER ITERATION):

    HEAD CHANGE    HEAD CHANGE    HEAD CHANGE    HEAD CHANGE    HEAD CHANGE 
   LAYER,ROW,COL  LAYER,ROW,COL  LAYER,ROW,COL  LAYER,ROW,COL  LAYER,ROW,COL
 ---------------------------------------------------------------------------
  1  0.6664E-01  0 -0.4338E-01  0  0.3824E-01  0  0.3000E-01  0  0.4010E-01
   (  5, 21,  2)  (  5, 17,  1)  (  5, 16,  2)  (  5, 17,  1)  (  5, 19,  1)
  0  0.2382E-01  0 -0.2087E-01  0 -0.1535E-01  0  0.1410E-01  0 -0.8184E-02
   (  5, 20,  1)  (  5, 18,  1)  (  5, 19,  1)  (  5, 18,  1)  (  5, 18,  4)
  0  0.6678E-02  0 -0.5747E-02  0  0.2728E-02  0  0.2798E-02  0  0.2172E-02
   (  5, 17,  3)  (  5, 16,  3)  (  5, 15,  1)  (  5, 12,  5)  (  5, 19,  3)
  0 -0.1410E-02  0  0.1101E-02  0 -0.1021E-02  0 -0.1153E-02  0 -0.4193E-03
   (  5, 18,  2)  (  5, 18,  1)  (  5, 16,  1)  (  5, 19,  3)  (  5, 17,  2)
  0  0.3815E-03  0 -0.2116E-03  0  0.2631E-03  0  0.1482E-03  0  0.1439E-03
   (  5, 17,  5)  (  5, 15,  1)  (  5, 16,  2)  (  5, 19,  1)  (  5, 18,  5)
  0  0.1031E-03  0 -0.5816E-04  0 -0.6393E-04  0  0.4544E-04  0 -0.3431E-04
   (  5, 20,  3)  (  5, 17,  1)  (  5, 15,  4)  (  5,  6,  1)  (  5,  6,  1)
  1  0.2656E-04  0 -0.2468E-04  0 -0.2442E-04  0 -0.2041E-04  0  0.1664E-04
   (  5, 14,  1)  (  5, 16,  1)  (  5,  6,  1)  (  5, 19,  1)  (  5, 17,  1)
  0 -0.1368E-04  0  0.1322E-04  0 -0.9067E-05  0 -0.5501E-05  0  0.3881E-05
   (  5, 18,  2)  (  5, 19,  1)  (  5, 20,  1)  (  5, 18,  5)  (  5, 18,  3)
  0 -0.3554E-05  0  0.3361E-05  0  0.1592E-05  0 -0.1368E-05  0 -0.1098E-05
   (  5, 16,  3)  (  5, 14,  1)  (  5, 11,  4)  (  5, 12,  5)  (  5, 20,  3)
  0 -0.9003E-06  1 -0.6308E-06
   (  5, 15,  5)  (  5, 18,  4)

 MAXIMUM RESIDUAL FOR EACH ITERATION (1 INDICATES THE FIRST INNER ITERATION):

    RESIDUAL       RESIDUAL       RESIDUAL       RESIDUAL       RESIDUAL    
   LAYER,ROW,COL  LAYER,ROW,COL  LAYER,ROW,COL  LAYER,ROW,COL  LAYER,ROW,COL
 ---------------------------------------------------------------------------
  1 -0.1875E-02  0 -0.1694E-02  0 -0.1527E-02  0 -0.1308E-02  0 -0.1055E-02
   (  3, 17, 17)  (  3, 17, 17)  (  3, 17, 17)  (  3, 17, 17)  (  3, 17, 17)
  0 -0.8037E-03  0 -0.5455E-03  0 -0.3306E-03  0 -0.1943E-03  0 -0.1229E-03
   (  3, 17, 17)  (  3, 17, 17)  (  3, 17, 17)  (  3, 20, 11)  (  3, 20, 11)
  0 -0.7978E-04  0 -0.6420E-04  0 -0.6113E-04  0 -0.4980E-04  0 -0.3971E-04
   (  3, 20, 11)  (  4, 16, 17)  (  4, 16, 17)  (  4, 16, 17)  (  4, 16, 17)
  0 -0.3590E-04  0 -0.2741E-04  0 -0.2036E-04  0 -0.1470E-04  0 -0.1011E-04
   (  4, 16, 17)  (  4, 16, 17)  (  4, 16, 17)  (  4, 16, 17)  (  4, 16, 17)
  0 -0.7152E-05  0 -0.6657E-05  0 -0.4678E-05  0 -0.3996E-05  0  0.2582E-05
   (  4, 16, 17)  (  4, 16, 17)  (  4, 16, 17)  (  4, 16, 17)  (  3, 21,  6)
  0  0.1656E-05  0  0.1450E-05  0  0.8170E-06  0  0.4044E-06  0 -0.2702E-06
   (  3, 21,  6)  (  3, 21,  6)  (  3, 21,  6)  (  3, 21,  6)  (  3, 17, 17)
  1 -0.3261E-06  0 -0.3101E-06  0 -0.2376E-06  0 -0.2069E-06  0 -0.1786E-06
   (  3, 17, 17)  (  3, 17, 17)  (  3, 17, 17)  (  3, 17, 17)  (  3, 17, 17)
  0 -0.1341E-06  0 -0.1170E-06  0 -0.8816E-07  0 -0.6776E-07  0 -0.5543E-07
   (  3, 17, 17)  (  3, 17, 17)  (  3, 17, 17)  (  3, 17, 17)  (  3, 17, 17)
  0 -0.4734E-07  0 -0.4165E-07  0 -0.3439E-07  0 -0.2707E-07  0 -0.2170E-07
   (  3, 17, 17)  (  3, 17, 17)  (  3, 17, 17)  (  3, 17, 17)  (  3, 17, 17)
  0 -0.1744E-07  1 -0.1669E-07
   (  3, 17, 17)  (  3, 17, 17)



 OUTPUT CONTROL FOR STRESS PERIOD   91   TIME STEP    3
    SAVE HEAD FOR ALL LAYERS
    SAVE DRAWDOWN FOR ALL LAYERS
    SAVE BUDGET
    PRINT BUDGET
 UBDSV1 SAVING "         STORAGE" ON UNIT   9 AT TIME STEP  3, STRESS PERIOD  91
 UBDSV2 SAVING "   CONSTANT HEAD" ON UNIT   9 AT TIME STEP  3, STRESS PERIOD  91
 UBDSV1 SAVING "FLOW RIGHT FACE " ON UNIT   9 AT TIME STEP  3, STRESS PERIOD  91
 UBDSV1 SAVING "FLOW FRONT FACE " ON UNIT   9 AT TIME STEP  3, STRESS PERIOD  91
 UBDSV1 SAVING "FLOW LOWER FACE " ON UNIT   9 AT TIME STEP  3, STRESS PERIOD  91
 UBDSV3 SAVING "        RECHARGE" ON UNIT   9 AT TIME STEP  3, STRESS PERIOD  91

 HEAD WILL BE SAVED ON UNIT   37 AT END OF TIME STEP    3, STRESS PERIOD   91

 DRAWDOWN WILL BE SAVED ON UNIT   38 AT END OF TIME STEP    3, STRESS PERIOD   91
1
  VOLUMETRIC BUDGET FOR ENTIRE MODEL AT END OF TIME STEP    3, STRESS PERIOD  91
  ------------------------------------------------------------------------------

     CUMULATIVE VOLUMES      L**3       RATES FOR THIS TIME STEP      L**3/T
     ------------------                 ------------------------

           IN:                                      IN:
           ---                                      ---
             STORAGE =       12141.7158               STORAGE =           0.0000
       CONSTANT HEAD =       23301.9648         CONSTANT HEAD =       9.3140E-04
            RECHARGE =        1056.3827              RECHARGE =       9.7813E-05

            TOTAL IN =       36500.0625              TOTAL IN =       1.0292E-03

          OUT:                                     OUT:
          ----                                     ----
             STORAGE =       10187.1455               STORAGE =       8.3155E-04
       CONSTANT HEAD =       26313.9355         CONSTANT HEAD =       1.9776E-04
            RECHARGE =           0.0000              RECHARGE =           0.0000

           TOTAL OUT =       36501.0820             TOTAL OUT =       1.0293E-03

            IN - OUT =          -1.0195              IN - OUT =      -9.4064E-08

 PERCENT DISCREPANCY =          -0.00     PERCENT DISCREPANCY =          -0.01






         TIME SUMMARY AT END OF TIME STEP    3 IN STRESS PERIOD   91
                    SECONDS     MINUTES      HOURS       DAYS        YEARS
                    -----------------------------------------------------------
   TIME STEP LENGTH  86400.      1440.0      24.000      1.0000     2.73785E-03
 STRESS PERIOD TIME 2.59200E+05  4320.0      72.000      3.0000     8.21355E-03
         TOTAL TIME 1.08000E+07 1.80000E+05  3000.0      125.00     0.34223    
1

 SOLVING FOR HEAD 
     3 CALLS TO PCG ROUTINE FOR TIME STEP   4 IN STRESS PERIOD   91
    47 TOTAL ITERATIONS

 MAXIMUM HEAD CHANGE FOR EACH ITERATION (1 INDICATES THE FIRST INNER ITERATION):

    HEAD CHANGE    HEAD CHANGE    HEAD CHANGE    HEAD CHANGE    HEAD CHANGE 
   LAYER,ROW,COL  LAYER,ROW,COL  LAYER,ROW,COL  LAYER,ROW,COL  LAYER,ROW,COL
 ---------------------------------------------------------------------------
  1  0.6698E-01  0 -0.4355E-01  0  0.3842E-01  0  0.3013E-01  0  0.4009E-01
   (  5, 21,  2)  (  5, 17,  1)  (  5, 16,  2)  (  5, 17,  1)  (  5, 19,  1)
  0  0.2396E-01  0 -0.2093E-01  0 -0.1537E-01  0  0.1421E-01  0 -0.8233E-02
   (  5, 20,  1)  (  5, 18,  1)  (  5, 19,  1)  (  5, 18,  1)  (  5, 18,  4)
  0  0.6988E-02  0 -0.5429E-02  0  0.3975E-02  0  0.2918E-02  0  0.2080E-02
   (  5, 17,  3)  (  5, 16,  3)  (  5, 15,  1)  (  5, 12,  5)  (  5, 19,  3)
  0 -0.1669E-02  0  0.1264E-02  0 -0.1040E-02  0 -0.1156E-02  0 -0.4669E-03
   (  5, 18,  2)  (  5, 18,  1)  (  5, 16,  1)  (  5, 19,  3)  (  5, 17,  2)
  0  0.4378E-03  0 -0.3465E-03  0  0.2577E-03  0 -0.2146E-03  0  0.1317E-03
   (  5, 16,  1)  (  5, 15,  1)  (  5, 19,  2)  (  5, 20,  1)  (  5, 18,  5)
  0  0.9343E-04  0  0.7356E-04  0  0.6935E-04  0  0.4541E-04  0 -0.2731E-04
   (  5, 20,  3)  (  5, 14,  2)  (  5, 19,  1)  (  5,  6,  1)  (  5, 17,  2)
  1  0.2608E-04  0  0.2518E-04  0 -0.1998E-04  0  0.2228E-04  0 -0.1755E-04
   (  5, 15,  1)  (  5, 18,  4)  (  5, 12,  4)  (  5, 19,  2)  (  5, 18,  1)
  0 -0.1808E-04  0  0.9406E-05  0 -0.9175E-05  0  0.4803E-05  0 -0.3704E-05
   (  5,  6,  1)  (  5, 19,  1)  (  5, 20,  1)  (  5, 12,  5)  (  5, 17,  5)
  0 -0.2955E-05  0  0.3238E-05  0 -0.1795E-05  0  0.1683E-05  0 -0.1008E-05
   (  5, 16,  1)  (  5, 15,  4)  (  5, 15,  4)  (  5, 17,  5)  (  5, 19,  5)
  0  0.8855E-06  1 -0.7217E-06
   (  5, 20,  1)  (  5, 20,  1)

 MAXIMUM RESIDUAL FOR EACH ITERATION (1 INDICATES THE FIRST INNER ITERATION):

    RESIDUAL       RESIDUAL       RESIDUAL       RESIDUAL       RESIDUAL    
   LAYER,ROW,COL  LAYER,ROW,COL  LAYER,ROW,COL  LAYER,ROW,COL  LAYER,ROW,COL
 ---------------------------------------------------------------------------
  1 -0.1874E-02  0 -0.1693E-02  0 -0.1527E-02  0 -0.1308E-02  0 -0.1057E-02
   (  3, 17, 17)  (  3, 17, 17)  (  3, 17, 17)  (  3, 17, 17)  (  3, 17, 17)
  0 -0.8055E-03  0 -0.5470E-03  0 -0.3312E-03  0 -0.1940E-03  0 -0.1226E-03
   (  3, 17, 17)  (  3, 17, 17)  (  3, 17, 17)  (  3, 20, 11)  (  3, 20, 11)
  0 -0.7971E-04  0 -0.6875E-04  0 -0.6133E-04  0 -0.4963E-04  0 -0.3935E-04
   (  3, 20, 11)  (  4, 16, 17)  (  4, 16, 17)  (  4, 16, 17)  (  4, 16, 17)
  0 -0.3435E-04  0 -0.2735E-04  0 -0.2035E-04  0 -0.1470E-04  0 -0.1012E-04
   (  4, 16, 17)  (  4, 16, 17)  (  4, 16, 17)  (  4, 16, 17)  (  4, 16, 17)
  0 -0.8547E-05  0 -0.6858E-05  0 -0.5724E-05  0 -0.4083E-05  0  0.2590E-05
   (  4, 16, 17)  (  4, 16, 17)  (  4, 16, 17)  (  4, 16, 17)  (  3, 21,  6)
  0  0.1617E-05  0  0.1239E-05  0  0.8196E-06  0  0.4072E-06  0 -0.3138E-06
   (  3, 21,  6)  (  3, 21,  6)  (  3, 21,  6)  (  3, 21,  6)  (  3, 17, 17)
  1 -0.3940E-06  0 -0.3322E-06  0 -0.2787E-06  0 -0.2215E-06  0 -0.1998E-06
   (  3, 17, 17)  (  3, 17, 17)  (  3, 17, 17)  (  3, 17, 17)  (  3, 17, 17)
  0 -0.1486E-06  0 -0.1229E-06  0 -0.1006E-06  0 -0.7569E-07  0 -0.6258E-07
   (  3, 17, 17)  (  3, 17, 17)  (  3, 17, 17)  (  3, 17, 17)  (  3, 17, 17)
  0 -0.5745E-07  0 -0.4783E-07  0 -0.3994E-07  0 -0.3292E-07  0 -0.2616E-07
   (  3, 17, 17)  (  3, 17, 17)  (  3, 17, 17)  (  3, 17, 17)  (  3, 17, 17)
  0 -0.2039E-07  1 -0.1954E-07
   (  3, 17, 17)  (  3, 17, 17)



 OUTPUT CONTROL FOR STRESS PERIOD   91   TIME STEP    4
    SAVE HEAD FOR ALL LAYERS
    SAVE DRAWDOWN FOR ALL LAYERS
    SAVE BUDGET
    PRINT BUDGET
 UBDSV1 SAVING "         STORAGE" ON UNIT   9 AT TIME STEP  4, STRESS PERIOD  91
 UBDSV2 SAVING "   CONSTANT HEAD" ON UNIT   9 AT TIME STEP  4, STRESS PERIOD  91
 UBDSV1 SAVING "FLOW RIGHT FACE " ON UNIT   9 AT TIME STEP  4, STRESS PERIOD  91
 UBDSV1 SAVING "FLOW FRONT FACE " ON UNIT   9 AT TIME STEP  4, STRESS PERIOD  91
 UBDSV1 SAVING "FLOW LOWER FACE " ON UNIT   9 AT TIME STEP  4, STRESS PERIOD  91
 UBDSV3 SAVING "        RECHARGE" ON UNIT   9 AT TIME STEP  4, STRESS PERIOD  91

 HEAD WILL BE SAVED ON UNIT   37 AT END OF TIME STEP    4, STRESS PERIOD   91

 DRAWDOWN WILL BE SAVED ON UNIT   38 AT END OF TIME STEP    4, STRESS PERIOD   91
1
  VOLUMETRIC BUDGET FOR ENTIRE MODEL AT END OF TIME STEP    4, STRESS PERIOD  91
  ------------------------------------------------------------------------------

     CUMULATIVE VOLUMES      L**3       RATES FOR THIS TIME STEP      L**3/T
     ------------------                 ------------------------

           IN:                                      IN:
           ---                                      ---
             STORAGE =       12141.7158               STORAGE =           0.0000
       CONSTANT HEAD =       23378.6836         CONSTANT HEAD =       8.8794E-04
            RECHARGE =        1064.8337              RECHARGE =       9.7813E-05

            TOTAL IN =       36585.2305              TOTAL IN =       9.8576E-04

          OUT:                                     OUT:
          ----                                     ----
             STORAGE =       10261.2295               STORAGE =       8.5745E-04
       CONSTANT HEAD =       26325.0293         CONSTANT HEAD =       1.2840E-04
            RECHARGE =           0.0000              RECHARGE =           0.0000

           TOTAL OUT =       36586.2578             TOTAL OUT =       9.8585E-04

            IN - OUT =          -1.0273              IN - OUT =      -9.6392E-08

 PERCENT DISCREPANCY =          -0.00     PERCENT DISCREPANCY =          -0.01






         TIME SUMMARY AT END OF TIME STEP    4 IN STRESS PERIOD   91
                    SECONDS     MINUTES      HOURS       DAYS        YEARS
                    -----------------------------------------------------------
   TIME STEP LENGTH  86400.      1440.0      24.000      1.0000     2.73785E-03
 STRESS PERIOD TIME 3.45600E+05  5760.0      96.000      4.0000     1.09514E-02
         TOTAL TIME 1.08864E+07 1.81440E+05  3024.0      126.00     0.34497    
1
1
                            STRESS PERIOD NO.   92, LENGTH =   86400.00    
                            -----------------------------------------------

                              NUMBER OF TIME STEPS =     1

                               MULTIPLIER FOR DELT =     1.000

                            INITIAL TIME STEP SIZE =   86400.00    

 REUSING RECH FROM LAST STRESS PERIOD

 CHD NO.   LAYER   ROW   COL    START HEAD        END HEAD         IFACE           
 ----------------------------------------------------------------------------------
      1      4      1      1       110.3           110.3           0.000    
      2      5      1      1       110.3           110.3           0.000    
      3      4      1      2       110.3           110.3           0.000    
      4      5      1      2       110.3           110.3           0.000    
      5      4      1      3       110.3           110.3           0.000    
      6      5      1      3       110.3           110.3           0.000    
      7      4      1      4       110.3           110.3           0.000    
      8      5      1      4       110.3           110.3           0.000    
      9      4      1      5       110.3           110.3           0.000    
     10      5      1      5       110.3           110.3           0.000    
     11      4      1      6       110.3           110.3           0.000    
     12      5      1      6       110.3           110.3           0.000    
     13      4      1      7       110.3           110.3           0.000    
     14      5      1      7       110.3           110.3           0.000    
     15      4      1      8       110.3           110.3           0.000    
     16      5      1      8       110.3           110.3           0.000    
     17      4      1      9       110.3           110.3           0.000    
     18      5      1      9       110.3           110.3           0.000    
     19      4      1     10       110.3           110.3           0.000    
     20      5      1     10       110.3           110.3           0.000    
     21      4      1     11       110.3           110.3           0.000    
     22      5      1     11       110.3           110.3           0.000    
     23      4      1     12       110.3           110.3           0.000    
     24      5      1     12       110.3           110.3           0.000    
     25      4      1     13       110.3           110.3           0.000    
     26      5      1     13       110.3           110.3           0.000    
     27      4      1     14       110.3           110.3           0.000    
     28      5      1     14       110.3           110.3           0.000    
     29      4      1     15       110.3           110.3           0.000    
     30      5      1     15       110.3           110.3           0.000    
     31      4      1     16       110.3           110.3           0.000    
     32      5      1     16       110.3           110.3           0.000    
     33      4      1     17       110.3           110.3           0.000    
     34      5      1     17       110.3           110.3           0.000    
     35      4     17     17       110.3           109.9           0.000    
     36      5     17     17       110.3           109.9           0.000    
     37      4     18     17       110.3           109.9           0.000    
     38      5     18     17       110.3           109.9           0.000    
     39      4     18     16       110.3           109.9           0.000    
     40      5     18     16       110.3           109.9           0.000    
     41      4     19     16       110.3           109.9           0.000    
     42      5     19     16       110.3           109.9           0.000    
     43      4     19     15       110.3           109.9           0.000    
     44      5     19     15       110.3           109.9           0.000    
     45      4     20     15       110.3           109.9           0.000    
     46      5     20     15       110.3           109.9           0.000    
     47      4     20     14       110.3           109.9           0.000    
     48      5     20     14       110.3           109.9           0.000    
     49      4     20     13       110.3           109.9           0.000    
     50      5     20     13       110.3           109.9           0.000    
     51      4     20     12       110.2           109.9           0.000    
     52      5     20     12       110.2           109.9           0.000    
     53      4     20     11       110.2           109.9           0.000    
     54      5     20     11       110.2           109.9           0.000    
     55      4     21     11       110.2           109.9           0.000    
     56      5     21     11       110.2           109.9           0.000    
     57      4     21     10       110.2           109.9           0.000    
     58      5     21     10       110.2           109.9           0.000    
     59      4     21      9       110.2           109.9           0.000    
     60      5     21      9       110.2           109.9           0.000    
     61      4     21      8       110.2           109.9           0.000    
     62      5     21      8       110.2           109.9           0.000    
     63      4     21      7       110.2           109.9           0.000    
     64      5     21      7       110.2           109.9           0.000    
     65      4     21      6       110.2           109.9           0.000    
     66      5     21      6       110.2           109.9           0.000    
     67      4     21      5       110.2           109.9           0.000    
     68      5     21      5       110.2           109.9           0.000    
     69      4     22      5       110.2           109.9           0.000    
     70      5     22      5       110.2           109.9           0.000    
     71      4     22      4       110.2           109.9           0.000    
     72      5     22      4       110.2           109.9           0.000    
     73      4     22      3       110.2           109.9           0.000    
     74      5     22      3       110.2           109.9           0.000    
     75      4     22      2       110.2           109.9           0.000    
     76      5     22      2       110.2           109.9           0.000    
     77      4     22      1       110.2           109.9           0.000    
     78      5     22      1       110.2           109.9           0.000    


     78 TIME-VARIANT SPECIFIED-HEAD CELLS

 SOLVING FOR HEAD 


     4 CALLS TO PCG ROUTINE FOR TIME STEP   1 IN STRESS PERIOD   92
    70 TOTAL ITERATIONS

 MAXIMUM HEAD CHANGE FOR EACH ITERATION (1 INDICATES THE FIRST INNER ITERATION):

    HEAD CHANGE    HEAD CHANGE    HEAD CHANGE    HEAD CHANGE    HEAD CHANGE 
   LAYER,ROW,COL  LAYER,ROW,COL  LAYER,ROW,COL  LAYER,ROW,COL  LAYER,ROW,COL
 ---------------------------------------------------------------------------
  1 -0.7109      0  0.4709      0 -0.4097      0 -0.3217      0 -0.4417    
   (  5, 21,  2)  (  5, 17,  1)  (  5, 16,  2)  (  5, 17,  1)  (  5, 19,  1)
  0 -0.2591      0  0.2289      0  0.1700      0 -0.1509      0  0.8924E-01
   (  5, 20,  1)  (  5, 18,  1)  (  5, 19,  1)  (  5, 18,  1)  (  5, 18,  4)
  0 -0.7366E-01  0  0.6359E-01  0 -0.4085E-01  0 -0.3222E-01  0 -0.2233E-01
   (  5, 17,  3)  (  5, 16,  3)  (  5, 15,  1)  (  5, 12,  5)  (  5, 19,  3)
  0  0.2016E-01  0 -0.1440E-01  0  0.1170E-01  0  0.1285E-01  0 -0.4331E-02
   (  5, 18,  2)  (  5, 18,  1)  (  5, 16,  1)  (  5, 19,  3)  (  5, 18,  2)
  0  0.3987E-02  0 -0.2969E-02  0 -0.2589E-02  0  0.1489E-02  0 -0.1675E-02
   (  5, 17,  2)  (  5, 16,  1)  (  5, 19,  2)  (  5, 20,  3)  (  5, 19,  1)
  0 -0.9990E-03  0  0.8968E-03  0 -0.7015E-03  0 -0.4546E-03  0  0.3671E-03
   (  5, 20,  3)  (  5, 19,  2)  (  5, 18,  1)  (  5,  6,  1)  (  5,  6,  1)
  1 -0.2175E-02  0  0.2398E-02  0 -0.1630E-02  0 -0.8926E-03  0  0.6033E-03
   (  5, 14,  1)  (  5, 16,  1)  (  5, 17,  3)  (  5, 12,  1)  (  5, 15,  4)
  0  0.7036E-03  0 -0.4170E-03  0 -0.1810E-03  0 -0.1854E-03  0 -0.1066E-03
   (  5, 18,  1)  (  5, 19,  1)  (  5, 12, 10)  (  5, 12,  5)  (  5, 15,  3)
  0  0.1001E-03  0 -0.7548E-04  0 -0.9576E-04  0 -0.8216E-04  0 -0.4853E-04
   (  5, 20,  1)  (  5, 16,  2)  (  5, 20,  1)  (  5, 19,  3)  (  5, 16,  1)
  0 -0.4847E-04  0  0.1920E-04  0  0.1813E-04  0  0.1155E-04  0  0.1185E-04
   (  5, 20,  1)  (  5, 21,  1)  (  5, 13,  2)  (  5, 18,  1)  (  5, 16,  5)
  0 -0.8511E-05  0  0.6930E-05  0 -0.4408E-05  0  0.3200E-05  0  0.3484E-05
   (  5, 16,  1)  (  5, 17,  2)  (  5, 20,  2)  (  5, 19,  1)  (  5, 17,  6)
  0 -0.1890E-05  0  0.1010E-05  0 -0.8271E-06  1 -0.3346E-04  0 -0.1065E-04
   (  5, 21,  3)  (  5, 20,  4)  (  5,  8,  1)  (  2, 19, 14)  (  5, 18,  3)
  0  0.7883E-05  0 -0.6132E-05  0  0.4512E-05  0  0.3735E-05  0 -0.2636E-05
   (  5, 17,  1)  (  5, 12,  1)  (  5, 16,  4)  (  5, 19,  1)  (  5, 18,  1)
  0  0.1455E-05  0 -0.1173E-05  0 -0.1057E-05  0  0.6706E-06  1 -0.4647E-06
   (  5, 20,  1)  (  5, 20,  1)  (  5, 18,  3)  (  5, 18,  4)  (  5, 12,  4)

 MAXIMUM RESIDUAL FOR EACH ITERATION (1 INDICATES THE FIRST INNER ITERATION):

    RESIDUAL       RESIDUAL       RESIDUAL       RESIDUAL       RESIDUAL    
   LAYER,ROW,COL  LAYER,ROW,COL  LAYER,ROW,COL  LAYER,ROW,COL  LAYER,ROW,COL
 ---------------------------------------------------------------------------
  1  0.2136E-01  0  0.1932E-01  0  0.1743E-01  0  0.1488E-01  0  0.1194E-01
   (  3, 17, 17)  (  3, 17, 17)  (  3, 17, 17)  (  3, 17, 17)  (  3, 17, 17)
  0  0.9048E-02  0  0.6153E-02  0  0.3785E-02  0  0.2275E-02  0  0.1460E-02
   (  3, 17, 17)  (  3, 17, 17)  (  3, 17, 17)  (  3, 20, 11)  (  3, 20, 11)
  0  0.9674E-03  0  0.7824E-03  0  0.7143E-03  0  0.5788E-03  0  0.4557E-03
   (  3, 20, 11)  (  4, 16, 17)  (  4, 16, 17)  (  4, 16, 17)  (  4, 16, 17)
  0  0.3854E-03  0  0.3156E-03  0  0.2347E-03  0  0.1688E-03  0  0.1168E-03
   (  4, 16, 17)  (  4, 16, 17)  (  4, 16, 17)  (  4, 16, 17)  (  4, 16, 17)
  0  0.8574E-04  0  0.7826E-04  0  0.5274E-04  0  0.4042E-04  0  0.2983E-04
   (  4, 16, 17)  (  4, 16, 17)  (  4, 16, 17)  (  4, 16, 17)  (  4, 16, 17)
  0  0.1804E-04  0  0.1228E-04  0  0.8932E-05  0  0.4565E-05  0  0.3296E-05
   (  4, 16, 17)  (  4, 16, 17)  (  4, 16, 17)  (  4, 16, 17)  (  3, 17, 17)
  1 -0.1053E-04  0 -0.1281E-04  0 -0.5893E-05  0 -0.5205E-05  0 -0.4571E-05
   (  5,  6,  1)  (  5,  6,  1)  (  3, 17, 17)  (  3, 17, 17)  (  3, 17, 17)
  0 -0.3740E-05  0 -0.2958E-05  0 -0.2148E-05  0 -0.1685E-05  0  0.1346E-05
   (  3, 17, 17)  (  3, 17, 17)  (  3, 17, 17)  (  3, 17, 17)  (  2, 17, 17)
  0  0.1154E-05  0  0.1088E-05  0  0.8479E-06  0  0.5918E-06  0  0.4092E-06
   (  2, 17, 17)  (  2, 17, 17)  (  2, 17, 17)  (  2, 17, 17)  (  2, 17, 17)
  0  0.2628E-06  0  0.1876E-06  0  0.1279E-06  0 -0.1196E-06  0 -0.9367E-07
   (  2, 17, 17)  (  2, 17, 17)  (  4, 21,  1)  (  4, 20,  2)  (  4, 20,  2)
  0 -0.6740E-07  0 -0.6147E-07  0  0.4045E-07  0  0.3518E-07  0  0.2570E-07
   (  4, 20,  2)  (  4, 20,  2)  (  2, 17, 17)  (  2, 17, 17)  (  2, 17, 17)
  0  0.1808E-07  0  0.1319E-07  0  0.8791E-08  1 -0.4589E-07  0 -0.4103E-07
   (  2, 17, 17)  (  2, 17, 17)  (  2, 17, 17)  (  3, 19, 14)  (  3, 19, 14)
  0 -0.3496E-07  0 -0.2795E-07  0 -0.2260E-07  0 -0.1781E-07  0 -0.1484E-07
   (  3, 19, 14)  (  3, 19, 14)  (  3, 19, 14)  (  3, 19, 14)  (  3, 21,  4)
  0 -0.1241E-07  0 -0.1049E-07  0 -0.7951E-08  0 -0.6229E-08  1 -0.7199E-08
   (  3, 21,  4)  (  3, 21,  4)  (  3, 21,  4)  (  3, 21,  4)  (  3, 21,  4)



 OUTPUT CONTROL FOR STRESS PERIOD   92   TIME STEP    1
    SAVE HEAD FOR ALL LAYERS
    SAVE DRAWDOWN FOR ALL LAYERS
    SAVE BUDGET
    PRINT BUDGET
 UBDSV1 SAVING "         STORAGE" ON UNIT   9 AT TIME STEP  1, STRESS PERIOD  92
 UBDSV2 SAVING "   CONSTANT HEAD" ON UNIT   9 AT TIME STEP  1, STRESS PERIOD  92
 UBDSV1 SAVING "FLOW RIGHT FACE " ON UNIT   9 AT TIME STEP  1, STRESS PERIOD  92
 UBDSV1 SAVING "FLOW FRONT FACE " ON UNIT   9 AT TIME STEP  1, STRESS PERIOD  92
 UBDSV1 SAVING "FLOW LOWER FACE " ON UNIT   9 AT TIME STEP  1, STRESS PERIOD  92
 UBDSV3 SAVING "        RECHARGE" ON UNIT   9 AT TIME STEP  1, STRESS PERIOD  92

 HEAD WILL BE SAVED ON UNIT   37 AT END OF TIME STEP    1, STRESS PERIOD   92

 DRAWDOWN WILL BE SAVED ON UNIT   38 AT END OF TIME STEP    1, STRESS PERIOD   92
1
  VOLUMETRIC BUDGET FOR ENTIRE MODEL AT END OF TIME STEP    1, STRESS PERIOD  92
  ------------------------------------------------------------------------------

     CUMULATIVE VOLUMES      L**3       RATES FOR THIS TIME STEP      L**3/T
     ------------------                 ------------------------

           IN:                                      IN:
           ---                                      ---
             STORAGE =       12620.3564               STORAGE =       5.5398E-03
       CONSTANT HEAD =       23559.2891         CONSTANT HEAD =       2.0903E-03
            RECHARGE =        1073.2848              RECHARGE =       9.7813E-05

            TOTAL IN =       37252.9297              TOTAL IN =       7.7280E-03

          OUT:                                     OUT:
          ----                                     ----
             STORAGE =       10261.2295               STORAGE =           0.0000
       CONSTANT HEAD =       26992.7363         CONSTANT HEAD =       7.7281E-03
            RECHARGE =           0.0000              RECHARGE =           0.0000

           TOTAL OUT =       37253.9648             TOTAL OUT =       7.7281E-03

            IN - OUT =          -1.0352              IN - OUT =      -1.0571E-07

 PERCENT DISCREPANCY =          -0.00     PERCENT DISCREPANCY =          -0.00






         TIME SUMMARY AT END OF TIME STEP    1 IN STRESS PERIOD   92
                    SECONDS     MINUTES      HOURS       DAYS        YEARS
                    -----------------------------------------------------------
   TIME STEP LENGTH  86400.      1440.0      24.000      1.0000     2.73785E-03
 STRESS PERIOD TIME  86400.      1440.0      24.000      1.0000     2.73785E-03
         TOTAL TIME 1.09728E+07 1.82880E+05  3048.0      127.00     0.34771    
1
1
                            STRESS PERIOD NO.   93, LENGTH =   86400.00    
                            -----------------------------------------------

                              NUMBER OF TIME STEPS =     1

                               MULTIPLIER FOR DELT =     1.000

                            INITIAL TIME STEP SIZE =   86400.00    

 REUSING RECH FROM LAST STRESS PERIOD

 CHD NO.   LAYER   ROW   COL    START HEAD        END HEAD         IFACE           
 ----------------------------------------------------------------------------------
      1      4      1      1       110.3           110.1           0.000    
      2      5      1      1       110.3           110.1           0.000    
      3      4      1      2       110.3           110.1           0.000    
      4      5      1      2       110.3           110.1           0.000    
      5      4      1      3       110.3           110.1           0.000    
      6      5      1      3       110.3           110.1           0.000    
      7      4      1      4       110.3           110.1           0.000    
      8      5      1      4       110.3           110.1           0.000    
      9      4      1      5       110.3           110.1           0.000    
     10      5      1      5       110.3           110.1           0.000    
     11      4      1      6       110.3           110.1           0.000    
     12      5      1      6       110.3           110.1           0.000    
     13      4      1      7       110.3           110.1           0.000    
     14      5      1      7       110.3           110.1           0.000    
     15      4      1      8       110.3           110.1           0.000    
     16      5      1      8       110.3           110.1           0.000    
     17      4      1      9       110.3           110.1           0.000    
     18      5      1      9       110.3           110.1           0.000    
     19      4      1     10       110.3           110.1           0.000    
     20      5      1     10       110.3           110.1           0.000    
     21      4      1     11       110.3           110.1           0.000    
     22      5      1     11       110.3           110.1           0.000    
     23      4      1     12       110.3           110.1           0.000    
     24      5      1     12       110.3           110.1           0.000    
     25      4      1     13       110.3           110.1           0.000    
     26      5      1     13       110.3           110.1           0.000    
     27      4      1     14       110.3           110.1           0.000    
     28      5      1     14       110.3           110.1           0.000    
     29      4      1     15       110.3           110.1           0.000    
     30      5      1     15       110.3           110.1           0.000    
     31      4      1     16       110.3           110.1           0.000    
     32      5      1     16       110.3           110.1           0.000    
     33      4      1     17       110.3           110.1           0.000    
     34      5      1     17       110.3           110.1           0.000    
     35      4     17     17       109.9           109.7           0.000    
     36      5     17     17       109.9           109.7           0.000    
     37      4     18     17       109.9           109.7           0.000    
     38      5     18     17       109.9           109.7           0.000    
     39      4     18     16       109.9           109.6           0.000    
     40      5     18     16       109.9           109.6           0.000    
     41      4     19     16       109.9           109.6           0.000    
     42      5     19     16       109.9           109.6           0.000    
     43      4     19     15       109.9           109.6           0.000    
     44      5     19     15       109.9           109.6           0.000    
     45      4     20     15       109.9           109.6           0.000    
     46      5     20     15       109.9           109.6           0.000    
     47      4     20     14       109.9           109.6           0.000    
     48      5     20     14       109.9           109.6           0.000    
     49      4     20     13       109.9           109.6           0.000    
     50      5     20     13       109.9           109.6           0.000    
     51      4     20     12       109.9           109.6           0.000    
     52      5     20     12       109.9           109.6           0.000    
     53      4     20     11       109.9           109.6           0.000    
     54      5     20     11       109.9           109.6           0.000    
     55      4     21     11       109.9           109.6           0.000    
     56      5     21     11       109.9           109.6           0.000    
     57      4     21     10       109.9           109.6           0.000    
     58      5     21     10       109.9           109.6           0.000    
     59      4     21      9       109.9           109.6           0.000    
     60      5     21      9       109.9           109.6           0.000    
     61      4     21      8       109.9           109.6           0.000    
     62      5     21      8       109.9           109.6           0.000    
     63      4     21      7       109.9           109.6           0.000    
     64      5     21      7       109.9           109.6           0.000    
     65      4     21      6       109.9           109.6           0.000    
     66      5     21      6       109.9           109.6           0.000    
     67      4     21      5       109.9           109.6           0.000    
     68      5     21      5       109.9           109.6           0.000    
     69      4     22      5       109.9           109.6           0.000    
     70      5     22      5       109.9           109.6           0.000    
     71      4     22      4       109.9           109.6           0.000    
     72      5     22      4       109.9           109.6           0.000    
     73      4     22      3       109.9           109.6           0.000    
     74      5     22      3       109.9           109.6           0.000    
     75      4     22      2       109.9           109.6           0.000    
     76      5     22      2       109.9           109.6           0.000    
     77      4     22      1       109.9           109.6           0.000    
     78      5     22      1       109.9           109.6           0.000    


     78 TIME-VARIANT SPECIFIED-HEAD CELLS

 SOLVING FOR HEAD 


     4 CALLS TO PCG ROUTINE FOR TIME STEP   1 IN STRESS PERIOD   93
    70 TOTAL ITERATIONS

 MAXIMUM HEAD CHANGE FOR EACH ITERATION (1 INDICATES THE FIRST INNER ITERATION):

    HEAD CHANGE    HEAD CHANGE    HEAD CHANGE    HEAD CHANGE    HEAD CHANGE 
   LAYER,ROW,COL  LAYER,ROW,COL  LAYER,ROW,COL  LAYER,ROW,COL  LAYER,ROW,COL
 ---------------------------------------------------------------------------
  1 -0.5764      0  0.3773      0 -0.3320      0 -0.2602      0 -0.3529    
   (  5, 21,  2)  (  5, 17,  1)  (  5, 16,  2)  (  5, 17,  1)  (  5, 19,  1)
  0 -0.2050      0  0.1803      0  0.1314      0 -0.1178      0  0.6917E-01
   (  5, 20,  1)  (  5, 18,  1)  (  5, 19,  1)  (  5, 18,  1)  (  5, 18,  4)
  0 -0.5946E-01  0  0.3987E-01  0 -0.3441E-01  0 -0.2502E-01  0  0.1443E-01
   (  5, 17,  3)  (  5, 16,  3)  (  5, 14,  1)  (  5, 12,  5)  (  5, 19,  1)
  0 -0.1291E-01  0  0.1427E-01  0  0.7575E-02  0  0.9700E-02  0  0.3970E-02
   (  5, 18,  1)  (  5, 18,  2)  (  5, 16,  1)  (  5, 19,  3)  (  5, 17,  2)
  0 -0.3500E-02  0  0.2708E-02  0 -0.2010E-02  0  0.1658E-02  0 -0.1084E-02
   (  5, 16,  1)  (  5, 15,  1)  (  5, 19,  2)  (  5, 20,  1)  (  5, 18,  5)
  0 -0.7744E-03  0 -0.6571E-03  0 -0.5631E-03  0 -0.4100E-03  0  0.2734E-03
   (  5, 20,  3)  (  5, 14,  2)  (  5, 19,  1)  (  5,  6,  1)  (  5,  6,  1)
  1 -0.2620E-02  0  0.3315E-02  0  0.1895E-02  0 -0.9797E-03  0 -0.7136E-03
   (  5, 15,  1)  (  5, 16,  1)  (  5, 11,  3)  (  5, 12,  2)  (  5, 17,  1)
  0  0.6742E-03  0 -0.6107E-03  0  0.3147E-03  0 -0.1818E-03  0 -0.1328E-03
   (  5, 18,  1)  (  5, 19,  1)  (  5, 20,  1)  (  5, 20,  1)  (  5, 18,  4)
  0  0.1282E-03  0 -0.1183E-03  0  0.9234E-04  0 -0.8278E-04  0  0.4808E-04
   (  5, 17,  4)  (  5, 16,  2)  (  5, 18,  2)  (  5, 19,  3)  (  5, 19,  4)
  0 -0.4204E-04  0 -0.2024E-04  0  0.1796E-04  0 -0.1663E-04  0  0.1202E-04
   (  5, 20,  1)  (  5, 20,  3)  (  5, 20,  3)  (  5, 18,  1)  (  5, 16,  1)
  0 -0.7026E-05  0  0.7272E-05  0 -0.4145E-05  0  0.2862E-05  0  0.3293E-05
   (  5, 16,  1)  (  5, 19,  1)  (  5, 19,  1)  (  5, 19,  1)  (  5, 17,  6)
  0 -0.1944E-05  0  0.1377E-05  0 -0.1211E-05  0  0.7388E-06  1 -0.2684E-04
   (  5, 17,  5)  (  5, 17,  4)  (  5, 14,  1)  (  5, 16,  2)  (  2, 19, 14)
  0  0.1224E-04  0 -0.1092E-04  0 -0.6226E-05  0  0.4426E-05  0  0.4621E-05
   (  5, 15,  1)  (  5, 18,  4)  (  5, 13,  2)  (  5, 16,  4)  (  5, 18,  1)
  0 -0.2929E-05  0  0.2032E-05  0 -0.1476E-05  0 -0.9820E-06  1  0.7055E-06
   (  5, 20,  2)  (  5, 20,  1)  (  5, 20,  1)  (  5, 18,  3)  (  5, 18,  3)

 MAXIMUM RESIDUAL FOR EACH ITERATION (1 INDICATES THE FIRST INNER ITERATION):

    RESIDUAL       RESIDUAL       RESIDUAL       RESIDUAL       RESIDUAL    
   LAYER,ROW,COL  LAYER,ROW,COL  LAYER,ROW,COL  LAYER,ROW,COL  LAYER,ROW,COL
 ---------------------------------------------------------------------------
  1  0.1541E-01  0  0.1386E-01  0  0.1243E-01  0  0.1056E-01  0  0.8386E-02
   (  3, 17, 17)  (  3, 17, 17)  (  3, 17, 17)  (  3, 17, 17)  (  3, 17, 17)
  0  0.6267E-02  0  0.4154E-02  0  0.2471E-02  0  0.1442E-02  0  0.8955E-03
   (  3, 17, 17)  (  3, 17, 17)  (  3, 17, 17)  (  3, 20, 11)  (  3, 20, 11)
  0  0.6512E-03  0  0.5932E-03  0  0.5116E-03  0  0.4102E-03  0  0.3210E-03
   (  4, 16, 17)  (  4, 16, 17)  (  4, 16, 17)  (  4, 16, 17)  (  4, 16, 17)
  0  0.2715E-03  0  0.2185E-03  0  0.1588E-03  0  0.1127E-03  0  0.7672E-04
   (  4, 16, 17)  (  4, 16, 17)  (  4, 16, 17)  (  4, 16, 17)  (  4, 16, 17)
  0  0.6612E-04  0  0.5294E-04  0 -0.4603E-04  0 -0.3393E-04  0 -0.2196E-04
   (  4, 16, 17)  (  4, 16, 17)  (  3, 21,  6)  (  3, 21,  6)  (  3, 21,  6)
  0 -0.1361E-04  0 -0.9845E-05  0 -0.6753E-05  0 -0.3194E-05  0  0.2008E-05
   (  3, 21,  6)  (  3, 21,  6)  (  3, 21,  6)  (  3, 21,  6)  (  5, 15, 17)
  1  0.8428E-05  0  0.7831E-05  0  0.5026E-05  0  0.4455E-05  0 -0.3838E-05
   (  2, 17, 17)  (  4,  6,  2)  (  5, 16, 17)  (  5, 16, 17)  (  3, 17, 17)
  0 -0.3277E-05  0 -0.2566E-05  0 -0.1925E-05  0 -0.1469E-05  0 -0.1176E-05
   (  3, 17, 17)  (  3, 17, 17)  (  3, 17, 17)  (  3, 17, 17)  (  3, 17, 17)
  0 -0.8913E-06  0 -0.7351E-06  0  0.5635E-06  0  0.3915E-06  0  0.2618E-06
   (  3, 17, 17)  (  3, 17, 17)  (  2, 17, 17)  (  2, 17, 17)  (  2, 17, 17)
  0  0.1781E-06  0  0.1397E-06  0 -0.1035E-06  0  0.1006E-06  0 -0.8048E-07
   (  5,  2, 17)  (  4, 21,  1)  (  4, 20,  2)  (  4, 21,  1)  (  4, 20,  2)
  0 -0.7288E-07  0 -0.6288E-07  0  0.2924E-07  0 -0.2239E-07  0 -0.1829E-07
   (  4, 20,  2)  (  4, 20,  2)  (  4, 21,  1)  (  4, 16, 16)  (  4, 16, 16)
  0 -0.1324E-07  0 -0.8037E-08  0  0.7372E-08  0  0.6426E-08  1 -0.4386E-07
   (  4, 17, 15)  (  4, 17, 15)  (  4, 19,  2)  (  4, 19,  2)  (  3, 19, 14)
  0 -0.3976E-07  0 -0.3277E-07  0 -0.2748E-07  0 -0.2251E-07  0 -0.1693E-07
   (  3, 19, 14)  (  3, 19, 14)  (  3, 19, 14)  (  3, 19, 14)  (  3, 19, 14)
  0 -0.1171E-07  0 -0.9931E-08  0 -0.8320E-08  0 -0.6948E-08  1 -0.7673E-08
   (  3, 19, 14)  (  3, 21,  4)  (  3, 21,  4)  (  3, 21,  4)  (  3, 21,  4)



 OUTPUT CONTROL FOR STRESS PERIOD   93   TIME STEP    1
    SAVE HEAD FOR ALL LAYERS
    SAVE DRAWDOWN FOR ALL LAYERS
    SAVE BUDGET
    PRINT BUDGET
 UBDSV1 SAVING "         STORAGE" ON UNIT   9 AT TIME STEP  1, STRESS PERIOD  93
 UBDSV2 SAVING "   CONSTANT HEAD" ON UNIT   9 AT TIME STEP  1, STRESS PERIOD  93
 UBDSV1 SAVING "FLOW RIGHT FACE " ON UNIT   9 AT TIME STEP  1, STRESS PERIOD  93
 UBDSV1 SAVING "FLOW FRONT FACE " ON UNIT   9 AT TIME STEP  1, STRESS PERIOD  93
 UBDSV1 SAVING "FLOW LOWER FACE " ON UNIT   9 AT TIME STEP  1, STRESS PERIOD  93
 UBDSV3 SAVING "        RECHARGE" ON UNIT   9 AT TIME STEP  1, STRESS PERIOD  93

 HEAD WILL BE SAVED ON UNIT   37 AT END OF TIME STEP    1, STRESS PERIOD   93

 DRAWDOWN WILL BE SAVED ON UNIT   38 AT END OF TIME STEP    1, STRESS PERIOD   93
1
  VOLUMETRIC BUDGET FOR ENTIRE MODEL AT END OF TIME STEP    1, STRESS PERIOD  93
  ------------------------------------------------------------------------------

     CUMULATIVE VOLUMES      L**3       RATES FOR THIS TIME STEP      L**3/T
     ------------------                 ------------------------

           IN:                                      IN:
           ---                                      ---
             STORAGE =       13324.5703               STORAGE =       8.1506E-03
       CONSTANT HEAD =       23641.2383         CONSTANT HEAD =       9.4849E-04
            RECHARGE =        1081.7358              RECHARGE =       9.7813E-05

            TOTAL IN =       38047.5430              TOTAL IN =       9.1969E-03

          OUT:                                     OUT:
          ----                                     ----
             STORAGE =       10261.2295               STORAGE =           0.0000
       CONSTANT HEAD =       27787.3574         CONSTANT HEAD =       9.1970E-03
            RECHARGE =           0.0000              RECHARGE =           0.0000

           TOTAL OUT =       38048.5859             TOTAL OUT =       9.1970E-03

            IN - OUT =          -1.0430              IN - OUT =      -7.9162E-08

 PERCENT DISCREPANCY =          -0.00     PERCENT DISCREPANCY =          -0.00






         TIME SUMMARY AT END OF TIME STEP    1 IN STRESS PERIOD   93
                    SECONDS     MINUTES      HOURS       DAYS        YEARS
                    -----------------------------------------------------------
   TIME STEP LENGTH  86400.      1440.0      24.000      1.0000     2.73785E-03
 STRESS PERIOD TIME  86400.      1440.0      24.000      1.0000     2.73785E-03
         TOTAL TIME 1.10592E+07 1.84320E+05  3072.0      128.00     0.35044    
1
1
                            STRESS PERIOD NO.   94, LENGTH =   86400.00    
                            -----------------------------------------------

                              NUMBER OF TIME STEPS =     1

                               MULTIPLIER FOR DELT =     1.000

                            INITIAL TIME STEP SIZE =   86400.00    

 REUSING RECH FROM LAST STRESS PERIOD

 CHD NO.   LAYER   ROW   COL    START HEAD        END HEAD         IFACE           
 ----------------------------------------------------------------------------------
      1      4      1      1       110.1           109.9           0.000    
      2      5      1      1       110.1           109.9           0.000    
      3      4      1      2       110.1           109.9           0.000    
      4      5      1      2       110.1           109.9           0.000    
      5      4      1      3       110.1           109.9           0.000    
      6      5      1      3       110.1           109.9           0.000    
      7      4      1      4       110.1           109.9           0.000    
      8      5      1      4       110.1           109.9           0.000    
      9      4      1      5       110.1           109.9           0.000    
     10      5      1      5       110.1           109.9           0.000    
     11      4      1      6       110.1           109.9           0.000    
     12      5      1      6       110.1           109.9           0.000    
     13      4      1      7       110.1           109.9           0.000    
     14      5      1      7       110.1           109.9           0.000    
     15      4      1      8       110.1           109.9           0.000    
     16      5      1      8       110.1           109.9           0.000    
     17      4      1      9       110.1           109.9           0.000    
     18      5      1      9       110.1           109.9           0.000    
     19      4      1     10       110.1           109.9           0.000    
     20      5      1     10       110.1           109.9           0.000    
     21      4      1     11       110.1           109.9           0.000    
     22      5      1     11       110.1           109.9           0.000    
     23      4      1     12       110.1           109.9           0.000    
     24      5      1     12       110.1           109.9           0.000    
     25      4      1     13       110.1           109.9           0.000    
     26      5      1     13       110.1           109.9           0.000    
     27      4      1     14       110.1           109.9           0.000    
     28      5      1     14       110.1           109.9           0.000    
     29      4      1     15       110.1           109.9           0.000    
     30      5      1     15       110.1           109.9           0.000    
     31      4      1     16       110.1           109.9           0.000    
     32      5      1     16       110.1           109.9           0.000    
     33      4      1     17       110.1           109.9           0.000    
     34      5      1     17       110.1           109.9           0.000    
     35      4     17     17       109.7           109.7           0.000    
     36      5     17     17       109.7           109.7           0.000    
     37      4     18     17       109.7           109.7           0.000    
     38      5     18     17       109.7           109.7           0.000    
     39      4     18     16       109.6           109.7           0.000    
     40      5     18     16       109.6           109.7           0.000    
     41      4     19     16       109.6           109.7           0.000    
     42      5     19     16       109.6           109.7           0.000    
     43      4     19     15       109.6           109.7           0.000    
     44      5     19     15       109.6           109.7           0.000    
     45      4     20     15       109.6           109.7           0.000    
     46      5     20     15       109.6           109.7           0.000    
     47      4     20     14       109.6           109.7           0.000    
     48      5     20     14       109.6           109.7           0.000    
     49      4     20     13       109.6           109.7           0.000    
     50      5     20     13       109.6           109.7           0.000    
     51      4     20     12       109.6           109.7           0.000    
     52      5     20     12       109.6           109.7           0.000    
     53      4     20     11       109.6           109.7           0.000    
     54      5     20     11       109.6           109.7           0.000    
     55      4     21     11       109.6           109.7           0.000    
     56      5     21     11       109.6           109.7           0.000    
     57      4     21     10       109.6           109.7           0.000    
     58      5     21     10       109.6           109.7           0.000    
     59      4     21      9       109.6           109.7           0.000    
     60      5     21      9       109.6           109.7           0.000    
     61      4     21      8       109.6           109.7           0.000    
     62      5     21      8       109.6           109.7           0.000    
     63      4     21      7       109.6           109.7           0.000    
     64      5     21      7       109.6           109.7           0.000    
     65      4     21      6       109.6           109.7           0.000    
     66      5     21      6       109.6           109.7           0.000    
     67      4     21      5       109.6           109.7           0.000    
     68      5     21      5       109.6           109.7           0.000    
     69      4     22      5       109.6           109.7           0.000    
     70      5     22      5       109.6           109.7           0.000    
     71      4     22      4       109.6           109.7           0.000    
     72      5     22      4       109.6           109.7           0.000    
     73      4     22      3       109.6           109.7           0.000    
     74      5     22      3       109.6           109.7           0.000    
     75      4     22      2       109.6           109.7           0.000    
     76      5     22      2       109.6           109.7           0.000    
     77      4     22      1       109.6           109.7           0.000    
     78      5     22      1       109.6           109.7           0.000    


     78 TIME-VARIANT SPECIFIED-HEAD CELLS

 SOLVING FOR HEAD 


     3 CALLS TO PCG ROUTINE FOR TIME STEP   1 IN STRESS PERIOD   94
    55 TOTAL ITERATIONS

 MAXIMUM HEAD CHANGE FOR EACH ITERATION (1 INDICATES THE FIRST INNER ITERATION):

    HEAD CHANGE    HEAD CHANGE    HEAD CHANGE    HEAD CHANGE    HEAD CHANGE 
   LAYER,ROW,COL  LAYER,ROW,COL  LAYER,ROW,COL  LAYER,ROW,COL  LAYER,ROW,COL
 ---------------------------------------------------------------------------
  1  0.1669      0 -0.1320      0  0.8713E-01  0 -0.8212E-01  0  0.9517E-01
   (  5, 21,  2)  (  5, 18,  1)  (  5, 16,  2)  (  5, 21,  2)  (  5, 19,  1)
  0 -0.5183E-01  0 -0.4314E-01  0 -0.3146E-01  0  0.2214E-01  0 -0.1386E-01
   (  5, 17,  1)  (  5, 18,  1)  (  5, 17,  3)  (  5, 18,  1)  (  5, 15,  4)
  0  0.8285E-02  0  0.7667E-02  0 -0.9381E-02  0  0.6034E-02  0 -0.4787E-02
   (  5, 14,  4)  (  5, 15,  1)  (  5, 16,  3)  (  5, 12,  5)  (  5, 20,  1)
  0  0.3465E-02  0 -0.4059E-02  0 -0.2226E-02  0 -0.2205E-02  0 -0.8178E-03
   (  5, 18,  1)  (  5, 18,  2)  (  5, 16,  3)  (  5, 19,  3)  (  5, 17,  4)
  0  0.7330E-03  0  0.6207E-03  0 -0.3710E-03  0  0.5393E-03  0  0.2624E-03
   (  5, 20,  1)  (  5, 16,  2)  (  5, 18,  1)  (  5, 19,  2)  (  5, 17,  2)
  0  0.2588E-03  0 -0.1286E-03  0 -0.1443E-03  0 -0.6668E-04  0 -0.4142E-04
   (  5, 20,  3)  (  5, 19,  2)  (  5, 15,  4)  (  5, 13,  3)  (  5, 14,  2)
  1 -0.3064E-03  0 -0.4591E-03  0  0.3440E-03  0 -0.2641E-03  0 -0.2159E-03
   (  5, 12,  4)  (  5, 16,  1)  (  5, 12,  3)  (  5, 13,  2)  (  5, 18,  2)
  0  0.1571E-03  0 -0.1213E-03  0  0.6213E-04  0 -0.3876E-04  0  0.2293E-04
   (  5, 19,  1)  (  5, 19,  1)  (  5, 11,  4)  (  5, 20,  1)  (  5, 16,  2)
  0 -0.2400E-04  0  0.1525E-04  0 -0.1690E-04  0  0.1400E-04  0 -0.9611E-05
   (  5, 16,  1)  (  5, 14,  1)  (  5, 17,  3)  (  5, 16,  4)  (  5, 15,  4)
  0  0.7384E-05  0  0.5273E-05  0 -0.3961E-05  0  0.3979E-05  0 -0.2117E-05
   (  5, 14,  5)  (  5, 18,  1)  (  5, 19,  2)  (  5, 20,  3)  (  5, 13,  6)
  0 -0.1903E-05  0 -0.1201E-05  0  0.1141E-05  0 -0.7278E-06  1 -0.8291E-06
   (  5, 16,  5)  (  5, 19,  1)  (  5, 17,  2)  (  5, 16,  2)  (  5, 20,  2)

 MAXIMUM RESIDUAL FOR EACH ITERATION (1 INDICATES THE FIRST INNER ITERATION):

    RESIDUAL       RESIDUAL       RESIDUAL       RESIDUAL       RESIDUAL    
   LAYER,ROW,COL  LAYER,ROW,COL  LAYER,ROW,COL  LAYER,ROW,COL  LAYER,ROW,COL
 ---------------------------------------------------------------------------
  1 -0.2441E-02  0 -0.1988E-02  0 -0.1673E-02  0 -0.1266E-02  0 -0.8453E-03
   (  3, 17, 17)  (  3, 17, 17)  (  3, 17, 17)  (  3, 17, 17)  (  3, 17, 17)
  0 -0.5345E-03  0 -0.2915E-03  0  0.1525E-03  0  0.1611E-03  0  0.1460E-03
   (  3, 20, 11)  (  3, 20, 11)  (  4, 21,  3)  (  4, 21,  2)  (  4, 21,  2)
  0  0.1150E-03  0 -0.9501E-04  0 -0.8256E-04  0 -0.6179E-04  0 -0.4385E-04
   (  4, 21,  2)  (  4, 16, 17)  (  4, 16, 17)  (  4, 16, 17)  (  4, 16, 17)
  0 -0.3737E-04  0  0.2775E-04  0  0.2183E-04  0  0.1669E-04  0  0.1228E-04
   (  4, 16, 17)  (  3, 21,  6)  (  3, 21,  6)  (  3, 21,  6)  (  3, 21,  6)
  0  0.9369E-05  0  0.7987E-05  0  0.7267E-05  0  0.5089E-05  0  0.3569E-05
   (  3, 21,  6)  (  3, 21,  6)  (  3, 21,  6)  (  5, 16, 17)  (  5, 16, 17)
  0  0.2465E-05  0  0.2150E-05  0  0.1481E-05  0  0.8972E-06  0  0.5754E-06
   (  5, 16, 17)  (  5, 16, 17)  (  5, 16, 17)  (  5, 16, 17)  (  5, 16, 17)
  1  0.1559E-05  0  0.1745E-05  0  0.1566E-05  0  0.9777E-06  0 -0.5570E-06
   (  2,  8,  5)  (  5,  7,  1)  (  5,  6,  3)  (  5,  6,  3)  (  4,  6,  1)
  0 -0.3235E-06  0 -0.2653E-06  0 -0.2199E-06  0 -0.1800E-06  0 -0.1466E-06
   (  3,  8,  5)  (  3,  8,  5)  (  3,  8,  5)  (  3,  8,  5)  (  3,  8,  5)
  0 -0.1228E-06  0 -0.1135E-06  0 -0.8811E-07  0 -0.6095E-07  0 -0.4063E-07
   (  3,  8,  5)  (  3,  8,  5)  (  3,  8,  5)  (  4,  3,  9)  (  4,  3,  9)
  0  0.2459E-07  0  0.2117E-07  0  0.2047E-07  0  0.2409E-07  0  0.1567E-07
   (  2,  2,  1)  (  4, 18,  4)  (  4, 18,  4)  (  4, 20,  2)  (  4, 20,  2)
  0  0.8048E-08  0  0.8039E-08  0  0.6881E-08  0  0.5670E-08  1  0.6446E-08
   (  4, 21,  3)  (  4, 20,  2)  (  4, 20,  2)  (  4, 20,  2)  (  2,  9,  1)



 OUTPUT CONTROL FOR STRESS PERIOD   94   TIME STEP    1
    SAVE HEAD FOR ALL LAYERS
    SAVE DRAWDOWN FOR ALL LAYERS
    SAVE BUDGET
    PRINT BUDGET
 UBDSV1 SAVING "         STORAGE" ON UNIT   9 AT TIME STEP  1, STRESS PERIOD  94
 UBDSV2 SAVING "   CONSTANT HEAD" ON UNIT   9 AT TIME STEP  1, STRESS PERIOD  94
 UBDSV1 SAVING "FLOW RIGHT FACE " ON UNIT   9 AT TIME STEP  1, STRESS PERIOD  94
 UBDSV1 SAVING "FLOW FRONT FACE " ON UNIT   9 AT TIME STEP  1, STRESS PERIOD  94
 UBDSV1 SAVING "FLOW LOWER FACE " ON UNIT   9 AT TIME STEP  1, STRESS PERIOD  94
 UBDSV3 SAVING "        RECHARGE" ON UNIT   9 AT TIME STEP  1, STRESS PERIOD  94

 HEAD WILL BE SAVED ON UNIT   37 AT END OF TIME STEP    1, STRESS PERIOD   94

 DRAWDOWN WILL BE SAVED ON UNIT   38 AT END OF TIME STEP    1, STRESS PERIOD   94
1
  VOLUMETRIC BUDGET FOR ENTIRE MODEL AT END OF TIME STEP    1, STRESS PERIOD  94
  ------------------------------------------------------------------------------

     CUMULATIVE VOLUMES      L**3       RATES FOR THIS TIME STEP      L**3/T
     ------------------                 ------------------------

           IN:                                      IN:
           ---                                      ---
             STORAGE =       13597.1875               STORAGE =       3.1553E-03
       CONSTANT HEAD =       23708.9980         CONSTANT HEAD =       7.8426E-04
            RECHARGE =        1090.1869              RECHARGE =       9.7813E-05

            TOTAL IN =       38396.3750              TOTAL IN =       4.0374E-03

          OUT:                                     OUT:
          ----                                     ----
             STORAGE =       10264.1602               STORAGE =       3.3918E-05
       CONSTANT HEAD =       28133.2617         CONSTANT HEAD =       4.0035E-03
            RECHARGE =           0.0000              RECHARGE =           0.0000

           TOTAL OUT =       38397.4219             TOTAL OUT =       4.0374E-03

            IN - OUT =          -1.0469              IN - OUT =      -8.5682E-08

 PERCENT DISCREPANCY =          -0.00     PERCENT DISCREPANCY =          -0.00






         TIME SUMMARY AT END OF TIME STEP    1 IN STRESS PERIOD   94
                    SECONDS     MINUTES      HOURS       DAYS        YEARS
                    -----------------------------------------------------------
   TIME STEP LENGTH  86400.      1440.0      24.000      1.0000     2.73785E-03
 STRESS PERIOD TIME  86400.      1440.0      24.000      1.0000     2.73785E-03
         TOTAL TIME 1.11456E+07 1.85760E+05  3096.0      129.00     0.35318    
1
1
                            STRESS PERIOD NO.   95, LENGTH =   86400.00    
                            -----------------------------------------------

                              NUMBER OF TIME STEPS =     1

                               MULTIPLIER FOR DELT =     1.000

                            INITIAL TIME STEP SIZE =   86400.00    

 REUSING RECH FROM LAST STRESS PERIOD

 CHD NO.   LAYER   ROW   COL    START HEAD        END HEAD         IFACE           
 ----------------------------------------------------------------------------------
      1      4      1      1       109.9           109.9           0.000    
      2      5      1      1       109.9           109.9           0.000    
      3      4      1      2       109.9           109.9           0.000    
      4      5      1      2       109.9           109.9           0.000    
      5      4      1      3       109.9           109.9           0.000    
      6      5      1      3       109.9           109.9           0.000    
      7      4      1      4       109.9           109.9           0.000    
      8      5      1      4       109.9           109.9           0.000    
      9      4      1      5       109.9           109.9           0.000    
     10      5      1      5       109.9           109.9           0.000    
     11      4      1      6       109.9           109.9           0.000    
     12      5      1      6       109.9           109.9           0.000    
     13      4      1      7       109.9           109.9           0.000    
     14      5      1      7       109.9           109.9           0.000    
     15      4      1      8       109.9           109.9           0.000    
     16      5      1      8       109.9           109.9           0.000    
     17      4      1      9       109.9           109.9           0.000    
     18      5      1      9       109.9           109.9           0.000    
     19      4      1     10       109.9           109.9           0.000    
     20      5      1     10       109.9           109.9           0.000    
     21      4      1     11       109.9           109.9           0.000    
     22      5      1     11       109.9           109.9           0.000    
     23      4      1     12       109.9           109.9           0.000    
     24      5      1     12       109.9           109.9           0.000    
     25      4      1     13       109.9           109.9           0.000    
     26      5      1     13       109.9           109.9           0.000    
     27      4      1     14       109.9           109.9           0.000    
     28      5      1     14       109.9           109.9           0.000    
     29      4      1     15       109.9           109.9           0.000    
     30      5      1     15       109.9           109.9           0.000    
     31      4      1     16       109.9           109.9           0.000    
     32      5      1     16       109.9           109.9           0.000    
     33      4      1     17       109.9           109.9           0.000    
     34      5      1     17       109.9           109.9           0.000    
     35      4     17     17       109.7           109.7           0.000    
     36      5     17     17       109.7           109.7           0.000    
     37      4     18     17       109.7           109.7           0.000    
     38      5     18     17       109.7           109.7           0.000    
     39      4     18     16       109.7           109.7           0.000    
     40      5     18     16       109.7           109.7           0.000    
     41      4     19     16       109.7           109.7           0.000    
     42      5     19     16       109.7           109.7           0.000    
     43      4     19     15       109.7           109.7           0.000    
     44      5     19     15       109.7           109.7           0.000    
     45      4     20     15       109.7           109.7           0.000    
     46      5     20     15       109.7           109.7           0.000    
     47      4     20     14       109.7           109.6           0.000    
     48      5     20     14       109.7           109.6           0.000    
     49      4     20     13       109.7           109.6           0.000    
     50      5     20     13       109.7           109.6           0.000    
     51      4     20     12       109.7           109.6           0.000    
     52      5     20     12       109.7           109.6           0.000    
     53      4     20     11       109.7           109.6           0.000    
     54      5     20     11       109.7           109.6           0.000    
     55      4     21     11       109.7           109.6           0.000    
     56      5     21     11       109.7           109.6           0.000    
     57      4     21     10       109.7           109.6           0.000    
     58      5     21     10       109.7           109.6           0.000    
     59      4     21      9       109.7           109.6           0.000    
     60      5     21      9       109.7           109.6           0.000    
     61      4     21      8       109.7           109.6           0.000    
     62      5     21      8       109.7           109.6           0.000    
     63      4     21      7       109.7           109.6           0.000    
     64      5     21      7       109.7           109.6           0.000    
     65      4     21      6       109.7           109.6           0.000    
     66      5     21      6       109.7           109.6           0.000    
     67      4     21      5       109.7           109.6           0.000    
     68      5     21      5       109.7           109.6           0.000    
     69      4     22      5       109.7           109.6           0.000    
     70      5     22      5       109.7           109.6           0.000    
     71      4     22      4       109.7           109.6           0.000    
     72      5     22      4       109.7           109.6           0.000    
     73      4     22      3       109.7           109.6           0.000    
     74      5     22      3       109.7           109.6           0.000    
     75      4     22      2       109.7           109.6           0.000    
     76      5     22      2       109.7           109.6           0.000    
     77      4     22      1       109.7           109.6           0.000    
     78      5     22      1       109.7           109.6           0.000    


     78 TIME-VARIANT SPECIFIED-HEAD CELLS

 SOLVING FOR HEAD 


     3 CALLS TO PCG ROUTINE FOR TIME STEP   1 IN STRESS PERIOD   95
    52 TOTAL ITERATIONS

 MAXIMUM HEAD CHANGE FOR EACH ITERATION (1 INDICATES THE FIRST INNER ITERATION):

    HEAD CHANGE    HEAD CHANGE    HEAD CHANGE    HEAD CHANGE    HEAD CHANGE 
   LAYER,ROW,COL  LAYER,ROW,COL  LAYER,ROW,COL  LAYER,ROW,COL  LAYER,ROW,COL
 ---------------------------------------------------------------------------
  1 -0.1033      0  0.6618E-01  0 -0.5891E-01  0 -0.4475E-01  0 -0.5279E-01
   (  5, 21,  2)  (  5, 17,  1)  (  5, 16,  2)  (  5, 17,  1)  (  5, 19,  1)
  0 -0.3944E-01  0  0.3034E-01  0 -0.2189E-01  0 -0.2362E-01  0  0.1143E-01
   (  5, 20,  1)  (  5, 18,  1)  (  5, 17,  1)  (  5, 18,  1)  (  5, 18,  4)
  0 -0.1032E-01  0  0.7639E-02  0 -0.4544E-02  0 -0.4032E-02  0 -0.2331E-02
   (  5, 17,  3)  (  5, 16,  3)  (  5, 15,  1)  (  5, 12,  5)  (  5, 19,  3)
  0  0.2564E-02  0  0.1580E-02  0 -0.1061E-02  0  0.1838E-02  0 -0.5955E-03
   (  5, 18,  3)  (  5, 17,  1)  (  5, 19,  1)  (  5, 19,  3)  (  5, 18,  2)
  0  0.5305E-03  0 -0.4002E-03  0  0.4021E-03  0 -0.3430E-03  0 -0.1960E-03
   (  5, 17,  2)  (  5, 16,  1)  (  5, 19,  1)  (  5, 19,  2)  (  5, 18,  5)
  0 -0.1360E-03  0 -0.8248E-04  0 -0.7656E-04  0  0.3633E-04  0  0.3666E-04
   (  5, 20,  3)  (  5, 14,  2)  (  5, 19,  2)  (  5, 18,  1)  (  5, 16,  4)
  1 -0.1081E-03  0  0.1292E-03  0  0.1270E-03  0 -0.1039E-03  0  0.6911E-04
   (  5, 15,  1)  (  5, 16,  1)  (  5, 11,  3)  (  5, 12,  2)  (  5, 14,  3)
  0  0.8068E-04  0 -0.5436E-04  0  0.3365E-04  0 -0.2351E-04  0 -0.1065E-04
   (  5, 18,  1)  (  5, 19,  1)  (  5, 20,  1)  (  5, 20,  1)  (  5, 18,  2)
  0 -0.8583E-05  0  0.5342E-05  0 -0.8252E-05  0  0.4898E-05  0 -0.3733E-05
   (  5, 16,  1)  (  5, 18,  2)  (  5, 17,  3)  (  5, 16,  1)  (  5, 18,  1)
  0 -0.3000E-05  0 -0.1978E-05  0  0.1367E-05  0 -0.1893E-05  0  0.1105E-05
   (  5, 20,  1)  (  5, 20,  3)  (  5, 19,  3)  (  5, 18,  1)  (  5, 16,  1)
  0 -0.5474E-06  1  0.4646E-06
   (  5, 16,  1)  (  5, 15,  2)

 MAXIMUM RESIDUAL FOR EACH ITERATION (1 INDICATES THE FIRST INNER ITERATION):

    RESIDUAL       RESIDUAL       RESIDUAL       RESIDUAL       RESIDUAL    
   LAYER,ROW,COL  LAYER,ROW,COL  LAYER,ROW,COL  LAYER,ROW,COL  LAYER,ROW,COL
 ---------------------------------------------------------------------------
  1  0.2511E-02  0  0.2246E-02  0  0.2009E-02  0  0.1725E-02  0  0.1423E-02
   (  3, 17, 17)  (  3, 17, 17)  (  3, 17, 17)  (  3, 17, 17)  (  3, 17, 17)
  0  0.1096E-02  0  0.7474E-03  0  0.4306E-03  0  0.2277E-03  0  0.1411E-03
   (  3, 17, 17)  (  3, 17, 17)  (  3, 17, 17)  (  3, 17, 17)  (  3, 20, 11)
  0 -0.1028E-03  0 -0.8579E-04  0 -0.7747E-04  0  0.5773E-04  0  0.4699E-04
   (  4, 21,  2)  (  4, 21,  2)  (  4, 21,  2)  (  4, 16, 17)  (  4, 16, 17)
  0  0.3583E-04  0  0.3006E-04  0  0.2611E-04  0  0.1893E-04  0  0.1269E-04
   (  4, 16, 17)  (  4, 16, 17)  (  4, 16, 17)  (  4, 16, 17)  (  4, 16, 17)
  0  0.9018E-05  0 -0.8340E-05  0 -0.7125E-05  0 -0.5509E-05  0 -0.3556E-05
   (  4, 16, 17)  (  3, 21,  6)  (  3, 21,  6)  (  3, 21,  6)  (  3, 21,  6)
  0 -0.2170E-05  0 -0.1166E-05  0 -0.5890E-06  0 -0.5033E-06  0 -0.3326E-06
   (  3, 21,  6)  (  3, 21,  6)  (  3, 21,  6)  (  3, 21,  5)  (  4, 20,  3)
  1  0.8566E-06  0  0.7032E-06  0 -0.4831E-06  0 -0.3342E-06  0 -0.2867E-06
   (  2,  8,  5)  (  4,  6,  2)  (  4,  8,  4)  (  4,  8,  4)  (  4,  6,  2)
  0  0.2182E-06  0 -0.1664E-06  0  0.1368E-06  0 -0.9424E-07  0 -0.7338E-07
   (  5,  6,  1)  (  4, 18, 14)  (  4, 20,  2)  (  4, 18, 14)  (  3,  8,  5)
  0 -0.6275E-07  0 -0.5881E-07  0 -0.4582E-07  0 -0.3378E-07  0 -0.2218E-07
   (  3,  8,  5)  (  3,  8,  5)  (  3,  8,  5)  (  3,  8,  5)  (  3,  8,  5)
  0  0.1513E-07  0  0.1053E-07  0 -0.8574E-08  0 -0.6461E-08  0 -0.5717E-08
   (  4, 16, 17)  (  4, 18, 14)  (  4, 20,  2)  (  4, 20,  2)  (  4, 20,  2)
  0 -0.5220E-08  1 -0.5511E-08
   (  4, 20,  2)  (  4, 20,  2)



 OUTPUT CONTROL FOR STRESS PERIOD   95   TIME STEP    1
    SAVE HEAD FOR ALL LAYERS
    SAVE DRAWDOWN FOR ALL LAYERS
    SAVE BUDGET
    PRINT BUDGET
 UBDSV1 SAVING "         STORAGE" ON UNIT   9 AT TIME STEP  1, STRESS PERIOD  95
 UBDSV2 SAVING "   CONSTANT HEAD" ON UNIT   9 AT TIME STEP  1, STRESS PERIOD  95
 UBDSV1 SAVING "FLOW RIGHT FACE " ON UNIT   9 AT TIME STEP  1, STRESS PERIOD  95
 UBDSV1 SAVING "FLOW FRONT FACE " ON UNIT   9 AT TIME STEP  1, STRESS PERIOD  95
 UBDSV1 SAVING "FLOW LOWER FACE " ON UNIT   9 AT TIME STEP  1, STRESS PERIOD  95
 UBDSV3 SAVING "        RECHARGE" ON UNIT   9 AT TIME STEP  1, STRESS PERIOD  95

 HEAD WILL BE SAVED ON UNIT   37 AT END OF TIME STEP    1, STRESS PERIOD   95

 DRAWDOWN WILL BE SAVED ON UNIT   38 AT END OF TIME STEP    1, STRESS PERIOD   95
1
  VOLUMETRIC BUDGET FOR ENTIRE MODEL AT END OF TIME STEP    1, STRESS PERIOD  95
  ------------------------------------------------------------------------------

     CUMULATIVE VOLUMES      L**3       RATES FOR THIS TIME STEP      L**3/T
     ------------------                 ------------------------

           IN:                                      IN:
           ---                                      ---
             STORAGE =       13761.0400               STORAGE =       1.8964E-03
       CONSTANT HEAD =       23879.6738         CONSTANT HEAD =       1.9754E-03
            RECHARGE =        1098.6379              RECHARGE =       9.7813E-05

            TOTAL IN =       38739.3516              TOTAL IN =       3.9697E-03

          OUT:                                     OUT:
          ----                                     ----
             STORAGE =       10264.1602               STORAGE =           0.0000
       CONSTANT HEAD =       28476.2480         CONSTANT HEAD =       3.9698E-03
            RECHARGE =           0.0000              RECHARGE =           0.0000

           TOTAL OUT =       38740.4062             TOTAL OUT =       3.9698E-03

            IN - OUT =          -1.0547              IN - OUT =      -9.2667E-08

 PERCENT DISCREPANCY =          -0.00     PERCENT DISCREPANCY =          -0.00






         TIME SUMMARY AT END OF TIME STEP    1 IN STRESS PERIOD   95
                    SECONDS     MINUTES      HOURS       DAYS        YEARS
                    -----------------------------------------------------------
   TIME STEP LENGTH  86400.      1440.0      24.000      1.0000     2.73785E-03
 STRESS PERIOD TIME  86400.      1440.0      24.000      1.0000     2.73785E-03
         TOTAL TIME 1.12320E+07 1.87200E+05  3120.0      130.00     0.35592    
1
1
                            STRESS PERIOD NO.   96, LENGTH =   259200.0    
                            -----------------------------------------------

                              NUMBER OF TIME STEPS =     3

                               MULTIPLIER FOR DELT =     1.000

                            INITIAL TIME STEP SIZE =   86400.00    

 REUSING RECH FROM LAST STRESS PERIOD

 CHD NO.   LAYER   ROW   COL    START HEAD        END HEAD         IFACE           
 ----------------------------------------------------------------------------------
      1      4      1      1       109.9           109.8           0.000    
      2      5      1      1       109.9           109.8           0.000    
      3      4      1      2       109.9           109.8           0.000    
      4      5      1      2       109.9           109.8           0.000    
      5      4      1      3       109.9           109.8           0.000    
      6      5      1      3       109.9           109.8           0.000    
      7      4      1      4       109.9           109.8           0.000    
      8      5      1      4       109.9           109.8           0.000    
      9      4      1      5       109.9           109.8           0.000    
     10      5      1      5       109.9           109.8           0.000    
     11      4      1      6       109.9           109.8           0.000    
     12      5      1      6       109.9           109.8           0.000    
     13      4      1      7       109.9           109.8           0.000    
     14      5      1      7       109.9           109.8           0.000    
     15      4      1      8       109.9           109.8           0.000    
     16      5      1      8       109.9           109.8           0.000    
     17      4      1      9       109.9           109.8           0.000    
     18      5      1      9       109.9           109.8           0.000    
     19      4      1     10       109.9           109.8           0.000    
     20      5      1     10       109.9           109.8           0.000    
     21      4      1     11       109.9           109.8           0.000    
     22      5      1     11       109.9           109.8           0.000    
     23      4      1     12       109.9           109.8           0.000    
     24      5      1     12       109.9           109.8           0.000    
     25      4      1     13       109.9           109.8           0.000    
     26      5      1     13       109.9           109.8           0.000    
     27      4      1     14       109.9           109.8           0.000    
     28      5      1     14       109.9           109.8           0.000    
     29      4      1     15       109.9           109.8           0.000    
     30      5      1     15       109.9           109.8           0.000    
     31      4      1     16       109.9           109.8           0.000    
     32      5      1     16       109.9           109.8           0.000    
     33      4      1     17       109.9           109.8           0.000    
     34      5      1     17       109.9           109.8           0.000    
     35      4     17     17       109.7           109.7           0.000    
     36      5     17     17       109.7           109.7           0.000    
     37      4     18     17       109.7           109.7           0.000    
     38      5     18     17       109.7           109.7           0.000    
     39      4     18     16       109.7           109.7           0.000    
     40      5     18     16       109.7           109.7           0.000    
     41      4     19     16       109.7           109.7           0.000    
     42      5     19     16       109.7           109.7           0.000    
     43      4     19     15       109.7           109.7           0.000    
     44      5     19     15       109.7           109.7           0.000    
     45      4     20     15       109.7           109.7           0.000    
     46      5     20     15       109.7           109.7           0.000    
     47      4     20     14       109.6           109.7           0.000    
     48      5     20     14       109.6           109.7           0.000    
     49      4     20     13       109.6           109.7           0.000    
     50      5     20     13       109.6           109.7           0.000    
     51      4     20     12       109.6           109.7           0.000    
     52      5     20     12       109.6           109.7           0.000    
     53      4     20     11       109.6           109.7           0.000    
     54      5     20     11       109.6           109.7           0.000    
     55      4     21     11       109.6           109.7           0.000    
     56      5     21     11       109.6           109.7           0.000    
     57      4     21     10       109.6           109.7           0.000    
     58      5     21     10       109.6           109.7           0.000    
     59      4     21      9       109.6           109.7           0.000    
     60      5     21      9       109.6           109.7           0.000    
     61      4     21      8       109.6           109.7           0.000    
     62      5     21      8       109.6           109.7           0.000    
     63      4     21      7       109.6           109.7           0.000    
     64      5     21      7       109.6           109.7           0.000    
     65      4     21      6       109.6           109.7           0.000    
     66      5     21      6       109.6           109.7           0.000    
     67      4     21      5       109.6           109.7           0.000    
     68      5     21      5       109.6           109.7           0.000    
     69      4     22      5       109.6           109.7           0.000    
     70      5     22      5       109.6           109.7           0.000    
     71      4     22      4       109.6           109.7           0.000    
     72      5     22      4       109.6           109.7           0.000    
     73      4     22      3       109.6           109.7           0.000    
     74      5     22      3       109.6           109.7           0.000    
     75      4     22      2       109.6           109.7           0.000    
     76      5     22      2       109.6           109.7           0.000    
     77      4     22      1       109.6           109.7           0.000    
     78      5     22      1       109.6           109.7           0.000    


     78 TIME-VARIANT SPECIFIED-HEAD CELLS

 SOLVING FOR HEAD 


     3 CALLS TO PCG ROUTINE FOR TIME STEP   1 IN STRESS PERIOD   96
    48 TOTAL ITERATIONS

 MAXIMUM HEAD CHANGE FOR EACH ITERATION (1 INDICATES THE FIRST INNER ITERATION):

    HEAD CHANGE    HEAD CHANGE    HEAD CHANGE    HEAD CHANGE    HEAD CHANGE 
   LAYER,ROW,COL  LAYER,ROW,COL  LAYER,ROW,COL  LAYER,ROW,COL  LAYER,ROW,COL
 ---------------------------------------------------------------------------
  1  0.3911E-01  0 -0.3037E-01  0  0.2040E-01  0 -0.1905E-01  0  0.2411E-01
   (  5, 21,  2)  (  5, 18,  1)  (  5, 16,  2)  (  5, 14,  2)  (  5, 19,  1)
  0 -0.1247E-01  0 -0.1082E-01  0 -0.8455E-02  0  0.5478E-02  0 -0.3638E-02
   (  5, 13,  4)  (  5, 18,  1)  (  5, 17,  3)  (  5, 18,  1)  (  5, 15,  4)
  0  0.2349E-02  0 -0.2040E-02  0 -0.1425E-02  0  0.1424E-02  0 -0.1132E-02
   (  5, 14,  4)  (  5, 13,  5)  (  5, 16,  2)  (  5, 15,  3)  (  5, 20,  1)
  0 -0.8529E-03  0 -0.6505E-03  0  0.4038E-03  0 -0.5862E-03  0 -0.2271E-03
   (  5, 18,  3)  (  5, 17,  1)  (  5, 19,  1)  (  5, 19,  3)  (  5, 17,  4)
  0  0.1885E-03  0 -0.1185E-03  0  0.1363E-03  0  0.6812E-04  0  0.7029E-04
   (  5, 17,  5)  (  5, 19,  1)  (  5, 16,  2)  (  5, 19,  1)  (  5, 17,  2)
  0  0.5895E-04  0 -0.3346E-04  0 -0.2464E-04  0  0.1659E-04  0 -0.1087E-04
   (  5, 20,  3)  (  5, 15,  4)  (  5, 18,  1)  (  5, 19,  2)  (  5, 18,  2)
  1 -0.3780E-04  0  0.3872E-04  0 -0.5977E-04  0  0.3531E-04  0 -0.4754E-04
   (  5, 14,  2)  (  5, 14,  1)  (  5, 17,  2)  (  5, 18,  1)  (  5, 19,  1)
  0  0.1987E-04  0 -0.1542E-04  0  0.1834E-04  0  0.8534E-05  0  0.5671E-05
   (  5, 19,  2)  (  5, 10,  4)  (  5, 11,  4)  (  5, 18,  2)  (  5, 15,  1)
  0 -0.4919E-05  0  0.4212E-05  0 -0.2770E-05  0  0.2528E-05  0  0.1655E-05
   (  5, 16,  1)  (  5, 14,  1)  (  5, 16,  3)  (  5, 14,  4)  (  5, 12,  1)
  0  0.1436E-05  0 -0.8696E-06  1  0.6461E-06
   (  5, 18,  1)  (  5, 19,  2)  (  5, 18,  1)

 MAXIMUM RESIDUAL FOR EACH ITERATION (1 INDICATES THE FIRST INNER ITERATION):

    RESIDUAL       RESIDUAL       RESIDUAL       RESIDUAL       RESIDUAL    
   LAYER,ROW,COL  LAYER,ROW,COL  LAYER,ROW,COL  LAYER,ROW,COL  LAYER,ROW,COL
 ---------------------------------------------------------------------------
  1 -0.6492E-03  0 -0.5449E-03  0 -0.4698E-03  0 -0.3693E-03  0 -0.2544E-03
   (  3, 17, 17)  (  3, 17, 17)  (  3, 17, 17)  (  3, 17, 17)  (  3, 17, 17)
  0 -0.1675E-03  0 -0.9322E-04  0 -0.4674E-04  0  0.4060E-04  0  0.3776E-04
   (  3, 20, 11)  (  3, 20, 11)  (  3, 20, 11)  (  4, 21,  2)  (  4, 21,  2)
  0  0.3061E-04  0 -0.2343E-04  0 -0.2200E-04  0 -0.1706E-04  0 -0.1201E-04
   (  4, 21,  2)  (  4, 16, 17)  (  4, 16, 17)  (  4, 16, 17)  (  4, 16, 17)
  0 -0.8082E-05  0  0.6281E-05  0  0.5696E-05  0  0.4431E-05  0  0.3261E-05
   (  4, 16, 17)  (  3, 21,  6)  (  3, 21,  6)  (  3, 21,  6)  (  3, 21,  6)
  0  0.2344E-05  0  0.2006E-05  0  0.1608E-05  0  0.1372E-05  0  0.8596E-06
   (  3, 21,  6)  (  3, 21,  6)  (  3, 21,  6)  (  3, 21,  6)  (  5, 16, 17)
  0  0.5894E-06  0  0.3749E-06  0  0.2498E-06  0  0.2108E-06  0  0.1372E-06
   (  5, 16, 17)  (  5, 16, 17)  (  5, 16, 17)  (  5, 16, 17)  (  5, 16, 17)
  1  0.2730E-06  0  0.2428E-06  0  0.1976E-06  0  0.1641E-06  0  0.1074E-06
   (  2,  8,  5)  (  2,  8,  5)  (  2,  8,  5)  (  5,  6,  3)  (  2,  8,  5)
  0  0.7825E-07  0 -0.6401E-07  0 -0.4729E-07  0  0.3612E-07  0 -0.2772E-07
   (  2,  8,  5)  (  5, 16, 17)  (  5, 16, 17)  (  4, 21,  1)  (  3,  8,  5)
  0 -0.2369E-07  0 -0.2072E-07  0 -0.1889E-07  0 -0.1479E-07  0 -0.1114E-07
   (  3,  8,  5)  (  3,  8,  5)  (  3,  8,  5)  (  3,  8,  5)  (  3,  8,  5)
  0 -0.7877E-08  0 -0.6889E-08  1 -0.7289E-08
   (  3,  8,  5)  (  3,  8,  5)  (  3,  8,  5)



 OUTPUT CONTROL FOR STRESS PERIOD   96   TIME STEP    1
    SAVE HEAD FOR ALL LAYERS
    SAVE DRAWDOWN FOR ALL LAYERS
    SAVE BUDGET
    PRINT BUDGET
 UBDSV1 SAVING "         STORAGE" ON UNIT   9 AT TIME STEP  1, STRESS PERIOD  96
 UBDSV2 SAVING "   CONSTANT HEAD" ON UNIT   9 AT TIME STEP  1, STRESS PERIOD  96
 UBDSV1 SAVING "FLOW RIGHT FACE " ON UNIT   9 AT TIME STEP  1, STRESS PERIOD  96
 UBDSV1 SAVING "FLOW FRONT FACE " ON UNIT   9 AT TIME STEP  1, STRESS PERIOD  96
 UBDSV1 SAVING "FLOW LOWER FACE " ON UNIT   9 AT TIME STEP  1, STRESS PERIOD  96
 UBDSV3 SAVING "        RECHARGE" ON UNIT   9 AT TIME STEP  1, STRESS PERIOD  96

 HEAD WILL BE SAVED ON UNIT   37 AT END OF TIME STEP    1, STRESS PERIOD   96

 DRAWDOWN WILL BE SAVED ON UNIT   38 AT END OF TIME STEP    1, STRESS PERIOD   96
1
  VOLUMETRIC BUDGET FOR ENTIRE MODEL AT END OF TIME STEP    1, STRESS PERIOD  96
  ------------------------------------------------------------------------------

     CUMULATIVE VOLUMES      L**3       RATES FOR THIS TIME STEP      L**3/T
     ------------------                 ------------------------

           IN:                                      IN:
           ---                                      ---
             STORAGE =       13824.3086               STORAGE =       7.3228E-04
       CONSTANT HEAD =       24051.7051         CONSTANT HEAD =       1.9911E-03
            RECHARGE =        1107.0890              RECHARGE =       9.7813E-05

            TOTAL IN =       38983.1055              TOTAL IN =       2.8212E-03

          OUT:                                     OUT:
          ----                                     ----
             STORAGE =       10265.3486               STORAGE =       1.3757E-05
       CONSTANT HEAD =       28718.8184         CONSTANT HEAD =       2.8075E-03
            RECHARGE =           0.0000              RECHARGE =           0.0000

           TOTAL OUT =       38984.1680             TOTAL OUT =       2.8213E-03

            IN - OUT =          -1.0625              IN - OUT =      -9.0338E-08

 PERCENT DISCREPANCY =          -0.00     PERCENT DISCREPANCY =          -0.00






         TIME SUMMARY AT END OF TIME STEP    1 IN STRESS PERIOD   96
                    SECONDS     MINUTES      HOURS       DAYS        YEARS
                    -----------------------------------------------------------
   TIME STEP LENGTH  86400.      1440.0      24.000      1.0000     2.73785E-03
 STRESS PERIOD TIME  86400.      1440.0      24.000      1.0000     2.73785E-03
         TOTAL TIME 1.13184E+07 1.88640E+05  3144.0      131.00     0.35866    
1

 SOLVING FOR HEAD 
     3 CALLS TO PCG ROUTINE FOR TIME STEP   2 IN STRESS PERIOD   96
    49 TOTAL ITERATIONS

 MAXIMUM HEAD CHANGE FOR EACH ITERATION (1 INDICATES THE FIRST INNER ITERATION):

    HEAD CHANGE    HEAD CHANGE    HEAD CHANGE    HEAD CHANGE    HEAD CHANGE 
   LAYER,ROW,COL  LAYER,ROW,COL  LAYER,ROW,COL  LAYER,ROW,COL  LAYER,ROW,COL
 ---------------------------------------------------------------------------
  1  0.3624E-01  0 -0.2587E-01  0  0.1988E-01  0 -0.1692E-01  0  0.2158E-01
   (  5, 21,  2)  (  5, 18,  1)  (  5, 16,  2)  (  5, 21,  2)  (  5, 19,  1)
  0 -0.1051E-01  0 -0.1006E-01  0 -0.7772E-02  0  0.5072E-02  0 -0.3724E-02
   (  5, 17,  1)  (  5, 18,  1)  (  5, 17,  3)  (  5, 18,  1)  (  5, 18,  4)
  0  0.2263E-02  0  0.1823E-02  0 -0.2696E-02  0  0.1366E-02  0 -0.1059E-02
   (  5, 14,  4)  (  5, 17,  2)  (  5, 16,  3)  (  5, 12,  5)  (  5, 11,  4)
  0 -0.7797E-03  0 -0.5265E-03  0 -0.5185E-03  0 -0.5650E-03  0 -0.2680E-03
   (  5, 18,  3)  (  5, 17,  1)  (  5, 16,  3)  (  5, 19,  3)  (  5, 17,  2)
  0  0.1673E-03  0 -0.1679E-03  0 -0.1247E-03  0  0.7706E-04  0 -0.6414E-04
   (  5, 16,  1)  (  5, 15,  1)  (  5, 20,  1)  (  5, 19,  2)  (  5, 19,  2)
  0  0.5039E-04  0 -0.3270E-04  0  0.1988E-04  0 -0.1743E-04  0  0.1487E-04
   (  5, 20,  3)  (  5, 15,  4)  (  5, 12,  1)  (  5, 14,  1)  (  5, 17,  1)
  1 -0.2349E-04  0  0.2324E-04  0 -0.3142E-04  0  0.1616E-04  0 -0.2044E-04
   (  5, 17,  1)  (  5, 16,  2)  (  5, 14,  2)  (  2,  2,  9)  (  5, 12,  3)
  0 -0.1305E-04  0 -0.1277E-04  0  0.1037E-04  0 -0.8977E-05  0 -0.4538E-05
   (  5, 16,  2)  (  5, 19,  1)  (  5, 19,  1)  (  5, 20,  1)  (  5, 19,  3)
  0  0.3840E-05  0 -0.3517E-05  0  0.2342E-05  0  0.2164E-05  0 -0.1331E-05
   (  5, 18,  3)  (  5, 16,  1)  (  5, 14,  1)  (  5, 17,  5)  (  5, 15,  4)
  0  0.1037E-05  0  0.1072E-05  0 -0.4675E-06  1  0.3378E-06
   (  5, 15,  3)  (  5, 18,  1)  (  5, 19,  3)  (  5, 19,  3)

 MAXIMUM RESIDUAL FOR EACH ITERATION (1 INDICATES THE FIRST INNER ITERATION):

    RESIDUAL       RESIDUAL       RESIDUAL       RESIDUAL       RESIDUAL    
   LAYER,ROW,COL  LAYER,ROW,COL  LAYER,ROW,COL  LAYER,ROW,COL  LAYER,ROW,COL
 ---------------------------------------------------------------------------
  1 -0.6689E-03  0 -0.5735E-03  0 -0.4959E-03  0 -0.3968E-03  0 -0.2898E-03
   (  3, 17, 17)  (  3, 17, 17)  (  3, 17, 17)  (  3, 17, 17)  (  3, 17, 17)
  0 -0.2017E-03  0 -0.1289E-03  0 -0.7641E-04  0 -0.4433E-04  0  0.3469E-04
   (  3, 17, 17)  (  3, 20, 11)  (  3, 20, 11)  (  3, 20, 11)  (  4, 21,  2)
  0  0.2934E-04  0 -0.2618E-04  0 -0.2239E-04  0 -0.1719E-04  0 -0.1232E-04
   (  4, 21,  2)  (  4, 16, 17)  (  4, 16, 17)  (  4, 16, 17)  (  4, 16, 17)
  0 -0.8304E-05  0 -0.7317E-05  0  0.5570E-05  0  0.4471E-05  0  0.3384E-05
   (  4, 16, 17)  (  4, 16, 17)  (  3, 21,  6)  (  3, 21,  6)  (  3, 21,  6)
  0  0.3149E-05  0  0.2418E-05  0  0.1770E-05  0  0.1515E-05  0  0.9334E-06
   (  3, 21,  6)  (  3, 21,  6)  (  3, 21,  6)  (  3, 21,  6)  (  3, 21,  6)
  0  0.5676E-06  0  0.3436E-06  0  0.2418E-06  0  0.2082E-06  0  0.1888E-06
   (  3, 21,  5)  (  3, 20, 11)  (  3, 20, 11)  (  3, 20, 11)  (  3, 20, 11)
  1  0.1912E-06  0  0.1720E-06  0  0.1526E-06  0  0.1157E-06  0  0.9524E-07
   (  3, 20, 11)  (  3, 20, 11)  (  3, 20, 11)  (  3, 20, 11)  (  3, 20, 11)
  0  0.7229E-07  0  0.5265E-07  0 -0.3612E-07  0  0.3822E-07  0  0.2707E-07
   (  3, 20, 11)  (  3, 20, 11)  (  4, 20,  2)  (  4, 21,  1)  (  4, 21,  1)
  0 -0.2113E-07  0  0.1884E-07  0  0.1644E-07  0 -0.1246E-07  0 -0.8988E-08
   (  4, 20,  2)  (  4, 21,  1)  (  4, 21,  1)  (  4, 20,  2)  (  4, 20,  2)
  0 -0.6232E-08  0 -0.4639E-08  0 -0.2655E-08  1 -0.2677E-08
   (  4, 20,  2)  (  4, 20,  2)  (  3,  8,  5)  (  3,  8,  5)



 OUTPUT CONTROL FOR STRESS PERIOD   96   TIME STEP    2
    SAVE HEAD FOR ALL LAYERS
    SAVE DRAWDOWN FOR ALL LAYERS
    SAVE BUDGET
    PRINT BUDGET
 UBDSV1 SAVING "         STORAGE" ON UNIT   9 AT TIME STEP  2, STRESS PERIOD  96
 UBDSV2 SAVING "   CONSTANT HEAD" ON UNIT   9 AT TIME STEP  2, STRESS PERIOD  96
 UBDSV1 SAVING "FLOW RIGHT FACE " ON UNIT   9 AT TIME STEP  2, STRESS PERIOD  96
 UBDSV1 SAVING "FLOW FRONT FACE " ON UNIT   9 AT TIME STEP  2, STRESS PERIOD  96
 UBDSV1 SAVING "FLOW LOWER FACE " ON UNIT   9 AT TIME STEP  2, STRESS PERIOD  96
 UBDSV3 SAVING "        RECHARGE" ON UNIT   9 AT TIME STEP  2, STRESS PERIOD  96

 HEAD WILL BE SAVED ON UNIT   37 AT END OF TIME STEP    2, STRESS PERIOD   96

 DRAWDOWN WILL BE SAVED ON UNIT   38 AT END OF TIME STEP    2, STRESS PERIOD   96
1
  VOLUMETRIC BUDGET FOR ENTIRE MODEL AT END OF TIME STEP    2, STRESS PERIOD  96
  ------------------------------------------------------------------------------

     CUMULATIVE VOLUMES      L**3       RATES FOR THIS TIME STEP      L**3/T
     ------------------                 ------------------------

           IN:                                      IN:
           ---                                      ---
             STORAGE =       13860.4736               STORAGE =       4.1858E-04
       CONSTANT HEAD =       24202.7539         CONSTANT HEAD =       1.7482E-03
            RECHARGE =        1115.5400              RECHARGE =       9.7813E-05

            TOTAL IN =       39178.7656              TOTAL IN =       2.2646E-03

          OUT:                                     OUT:
          ----                                     ----
             STORAGE =       10269.6943               STORAGE =       5.0299E-05
       CONSTANT HEAD =       28910.1426         CONSTANT HEAD =       2.2144E-03
            RECHARGE =           0.0000              RECHARGE =           0.0000

           TOTAL OUT =       39179.8359             TOTAL OUT =       2.2647E-03

            IN - OUT =          -1.0703              IN - OUT =      -7.0781E-08

 PERCENT DISCREPANCY =          -0.00     PERCENT DISCREPANCY =          -0.00






         TIME SUMMARY AT END OF TIME STEP    2 IN STRESS PERIOD   96
                    SECONDS     MINUTES      HOURS       DAYS        YEARS
                    -----------------------------------------------------------
   TIME STEP LENGTH  86400.      1440.0      24.000      1.0000     2.73785E-03
 STRESS PERIOD TIME 1.72800E+05  2880.0      48.000      2.0000     5.47570E-03
         TOTAL TIME 1.14048E+07 1.90080E+05  3168.0      132.00     0.36140    
1

 SOLVING FOR HEAD 
     3 CALLS TO PCG ROUTINE FOR TIME STEP   3 IN STRESS PERIOD   96
    47 TOTAL ITERATIONS

 MAXIMUM HEAD CHANGE FOR EACH ITERATION (1 INDICATES THE FIRST INNER ITERATION):

    HEAD CHANGE    HEAD CHANGE    HEAD CHANGE    HEAD CHANGE    HEAD CHANGE 
   LAYER,ROW,COL  LAYER,ROW,COL  LAYER,ROW,COL  LAYER,ROW,COL  LAYER,ROW,COL
 ---------------------------------------------------------------------------
  1  0.3585E-01  0 -0.2490E-01  0  0.1971E-01  0 -0.1633E-01  0  0.2046E-01
   (  5, 21,  2)  (  5, 18,  1)  (  5, 16,  2)  (  5, 21,  2)  (  5, 19,  1)
  0 -0.1004E-01  0 -0.9924E-02  0 -0.7660E-02  0  0.5229E-02  0 -0.3822E-02
   (  5, 17,  1)  (  5, 18,  1)  (  5, 17,  3)  (  5, 18,  1)  (  5, 18,  4)
  0  0.2963E-02  0 -0.1931E-02  0 -0.1954E-02  0  0.1335E-02  0 -0.1038E-02
   (  5, 17,  3)  (  5, 16,  2)  (  5, 13,  5)  (  5, 12,  5)  (  5, 11,  4)
  0 -0.9057E-03  0 -0.6581E-03  0  0.3613E-03  0 -0.5877E-03  0 -0.3514E-03
   (  5, 18,  3)  (  5, 16,  1)  (  5, 19,  1)  (  5, 19,  3)  (  5, 17,  2)
  0  0.1921E-03  0 -0.1855E-03  0  0.1154E-03  0 -0.1106E-03  0  0.5834E-04
   (  5, 16,  1)  (  5, 20,  3)  (  5, 19,  2)  (  5, 20,  1)  (  5, 18,  5)
  0  0.4791E-04  0 -0.3114E-04  0 -0.2683E-04  0  0.1789E-04  0 -0.1464E-04
   (  5, 20,  3)  (  5, 15,  4)  (  5, 18,  1)  (  5, 16,  1)  (  5, 14,  2)
  1  0.1299E-04  0 -0.2050E-04  0  0.1807E-04  0 -0.2135E-04  0 -0.1367E-04
   (  5, 14,  2)  (  5, 11,  1)  (  5, 17,  1)  (  5, 19,  1)  (  5, 13,  3)
  0  0.9852E-05  0 -0.1018E-04  0  0.6758E-05  0 -0.5243E-05  0 -0.3039E-05
   (  5, 19,  1)  (  5, 20,  2)  (  5, 11,  4)  (  5, 20,  1)  (  5, 19,  3)
  0  0.2887E-05  0 -0.1987E-05  0  0.1695E-05  0 -0.1291E-05  0  0.1007E-05
   (  5, 18,  4)  (  5, 16,  3)  (  5, 16,  1)  (  5, 14,  1)  (  5, 12,  1)
  0  0.6114E-06  1  0.5739E-06
   (  5, 18,  1)  (  5, 15,  4)

 MAXIMUM RESIDUAL FOR EACH ITERATION (1 INDICATES THE FIRST INNER ITERATION):

    RESIDUAL       RESIDUAL       RESIDUAL       RESIDUAL       RESIDUAL    
   LAYER,ROW,COL  LAYER,ROW,COL  LAYER,ROW,COL  LAYER,ROW,COL  LAYER,ROW,COL
 ---------------------------------------------------------------------------
  1 -0.6728E-03  0 -0.5809E-03  0 -0.5048E-03  0 -0.4099E-03  0 -0.3085E-03
   (  3, 17, 17)  (  3, 17, 17)  (  3, 17, 17)  (  3, 17, 17)  (  3, 17, 17)
  0 -0.2216E-03  0 -0.1437E-03  0 -0.8723E-04  0 -0.5153E-04  0  0.3346E-04
   (  3, 17, 17)  (  3, 20, 11)  (  3, 20, 11)  (  3, 20, 11)  (  4, 21,  2)
  0 -0.2851E-04  0 -0.2705E-04  0 -0.2183E-04  0 -0.1677E-04  0 -0.1223E-04
   (  4, 16, 17)  (  4, 16, 17)  (  4, 16, 17)  (  4, 16, 17)  (  4, 16, 17)
  0 -0.8255E-05  0 -0.5918E-05  0  0.5253E-05  0  0.4403E-05  0  0.3501E-05
   (  4, 16, 17)  (  4, 16, 17)  (  3, 21,  6)  (  3, 21,  6)  (  3, 21,  6)
  0  0.3264E-05  0  0.2503E-05  0  0.2165E-05  0  0.1565E-05  0  0.9663E-06
   (  3, 21,  6)  (  3, 21,  6)  (  3, 21,  6)  (  3, 21,  6)  (  3, 21,  6)
  0  0.5838E-06  0  0.3547E-06  0  0.2458E-06  0  0.2155E-06  0  0.1665E-06
   (  3, 21,  6)  (  3, 20, 11)  (  3, 20, 11)  (  3, 20, 11)  (  3, 20, 11)
  1  0.1671E-06  0  0.1458E-06  0  0.1330E-06  0  0.1124E-06  0  0.7974E-07
   (  3, 20, 11)  (  3, 20, 11)  (  3, 20, 11)  (  3, 20, 11)  (  3, 20, 11)
  0  0.6390E-07  0  0.4458E-07  0 -0.3179E-07  0  0.3035E-07  0  0.2217E-07
   (  3, 20, 11)  (  3, 20, 11)  (  4, 20,  2)  (  4, 21,  1)  (  4, 21,  1)
  0 -0.1713E-07  0  0.1448E-07  0 -0.1312E-07  0 -0.9694E-08  0 -0.6932E-08
   (  4, 20,  2)  (  4, 21,  1)  (  4, 20,  2)  (  4, 20,  2)  (  4, 20,  2)
  0 -0.6286E-08  1 -0.5674E-08
   (  4, 20,  2)  (  4, 20,  2)



 OUTPUT CONTROL FOR STRESS PERIOD   96   TIME STEP    3
    SAVE HEAD FOR ALL LAYERS
    SAVE DRAWDOWN FOR ALL LAYERS
    SAVE BUDGET
    PRINT BUDGET
 UBDSV1 SAVING "         STORAGE" ON UNIT   9 AT TIME STEP  3, STRESS PERIOD  96
 UBDSV2 SAVING "   CONSTANT HEAD" ON UNIT   9 AT TIME STEP  3, STRESS PERIOD  96
 UBDSV1 SAVING "FLOW RIGHT FACE " ON UNIT   9 AT TIME STEP  3, STRESS PERIOD  96
 UBDSV1 SAVING "FLOW FRONT FACE " ON UNIT   9 AT TIME STEP  3, STRESS PERIOD  96
 UBDSV1 SAVING "FLOW LOWER FACE " ON UNIT   9 AT TIME STEP  3, STRESS PERIOD  96
 UBDSV3 SAVING "        RECHARGE" ON UNIT   9 AT TIME STEP  3, STRESS PERIOD  96

 HEAD WILL BE SAVED ON UNIT   37 AT END OF TIME STEP    3, STRESS PERIOD   96

 DRAWDOWN WILL BE SAVED ON UNIT   38 AT END OF TIME STEP    3, STRESS PERIOD   96
1
  VOLUMETRIC BUDGET FOR ENTIRE MODEL AT END OF TIME STEP    3, STRESS PERIOD  96
  ------------------------------------------------------------------------------

     CUMULATIVE VOLUMES      L**3       RATES FOR THIS TIME STEP      L**3/T
     ------------------                 ------------------------

           IN:                                      IN:
           ---                                      ---
             STORAGE =       13888.5889               STORAGE =       3.2541E-04
       CONSTANT HEAD =       24324.6445         CONSTANT HEAD =       1.4108E-03
            RECHARGE =        1123.9911              RECHARGE =       9.7813E-05

            TOTAL IN =       39337.2266              TOTAL IN =       1.8340E-03

          OUT:                                     OUT:
          ----                                     ----
             STORAGE =       10275.8633               STORAGE =       7.1403E-05
       CONSTANT HEAD =       29062.4395         CONSTANT HEAD =       1.7627E-03
            RECHARGE =           0.0000              RECHARGE =           0.0000

           TOTAL OUT =       39338.3047             TOTAL OUT =       1.8341E-03

            IN - OUT =          -1.0781              IN - OUT =      -1.0442E-07

 PERCENT DISCREPANCY =          -0.00     PERCENT DISCREPANCY =          -0.01






         TIME SUMMARY AT END OF TIME STEP    3 IN STRESS PERIOD   96
                    SECONDS     MINUTES      HOURS       DAYS        YEARS
                    -----------------------------------------------------------
   TIME STEP LENGTH  86400.      1440.0      24.000      1.0000     2.73785E-03
 STRESS PERIOD TIME 2.59200E+05  4320.0      72.000      3.0000     8.21355E-03
         TOTAL TIME 1.14912E+07 1.91520E+05  3192.0      133.00     0.36413    
1
1
                            STRESS PERIOD NO.   97, LENGTH =   86400.00    
                            -----------------------------------------------

                              NUMBER OF TIME STEPS =     1

                               MULTIPLIER FOR DELT =     1.000

                            INITIAL TIME STEP SIZE =   86400.00    

 REUSING RECH FROM LAST STRESS PERIOD

 CHD NO.   LAYER   ROW   COL    START HEAD        END HEAD         IFACE           
 ----------------------------------------------------------------------------------
      1      4      1      1       109.8           109.9           0.000    
      2      5      1      1       109.8           109.9           0.000    
      3      4      1      2       109.8           109.9           0.000    
      4      5      1      2       109.8           109.9           0.000    
      5      4      1      3       109.8           109.9           0.000    
      6      5      1      3       109.8           109.9           0.000    
      7      4      1      4       109.8           109.9           0.000    
      8      5      1      4       109.8           109.9           0.000    
      9      4      1      5       109.8           109.9           0.000    
     10      5      1      5       109.8           109.9           0.000    
     11      4      1      6       109.8           109.9           0.000    
     12      5      1      6       109.8           109.9           0.000    
     13      4      1      7       109.8           109.9           0.000    
     14      5      1      7       109.8           109.9           0.000    
     15      4      1      8       109.8           109.9           0.000    
     16      5      1      8       109.8           109.9           0.000    
     17      4      1      9       109.8           109.9           0.000    
     18      5      1      9       109.8           109.9           0.000    
     19      4      1     10       109.8           109.9           0.000    
     20      5      1     10       109.8           109.9           0.000    
     21      4      1     11       109.8           109.9           0.000    
     22      5      1     11       109.8           109.9           0.000    
     23      4      1     12       109.8           109.9           0.000    
     24      5      1     12       109.8           109.9           0.000    
     25      4      1     13       109.8           109.9           0.000    
     26      5      1     13       109.8           109.9           0.000    
     27      4      1     14       109.8           109.9           0.000    
     28      5      1     14       109.8           109.9           0.000    
     29      4      1     15       109.8           109.9           0.000    
     30      5      1     15       109.8           109.9           0.000    
     31      4      1     16       109.8           109.9           0.000    
     32      5      1     16       109.8           109.9           0.000    
     33      4      1     17       109.8           109.9           0.000    
     34      5      1     17       109.8           109.9           0.000    
     35      4     17     17       109.7           109.8           0.000    
     36      5     17     17       109.7           109.8           0.000    
     37      4     18     17       109.7           109.8           0.000    
     38      5     18     17       109.7           109.8           0.000    
     39      4     18     16       109.7           109.8           0.000    
     40      5     18     16       109.7           109.8           0.000    
     41      4     19     16       109.7           109.8           0.000    
     42      5     19     16       109.7           109.8           0.000    
     43      4     19     15       109.7           109.8           0.000    
     44      5     19     15       109.7           109.8           0.000    
     45      4     20     15       109.7           109.8           0.000    
     46      5     20     15       109.7           109.8           0.000    
     47      4     20     14       109.7           109.8           0.000    
     48      5     20     14       109.7           109.8           0.000    
     49      4     20     13       109.7           109.8           0.000    
     50      5     20     13       109.7           109.8           0.000    
     51      4     20     12       109.7           109.7           0.000    
     52      5     20     12       109.7           109.7           0.000    
     53      4     20     11       109.7           109.7           0.000    
     54      5     20     11       109.7           109.7           0.000    
     55      4     21     11       109.7           109.7           0.000    
     56      5     21     11       109.7           109.7           0.000    
     57      4     21     10       109.7           109.7           0.000    
     58      5     21     10       109.7           109.7           0.000    
     59      4     21      9       109.7           109.7           0.000    
     60      5     21      9       109.7           109.7           0.000    
     61      4     21      8       109.7           109.7           0.000    
     62      5     21      8       109.7           109.7           0.000    
     63      4     21      7       109.7           109.7           0.000    
     64      5     21      7       109.7           109.7           0.000    
     65      4     21      6       109.7           109.7           0.000    
     66      5     21      6       109.7           109.7           0.000    
     67      4     21      5       109.7           109.7           0.000    
     68      5     21      5       109.7           109.7           0.000    
     69      4     22      5       109.7           109.7           0.000    
     70      5     22      5       109.7           109.7           0.000    
     71      4     22      4       109.7           109.7           0.000    
     72      5     22      4       109.7           109.7           0.000    
     73      4     22      3       109.7           109.7           0.000    
     74      5     22      3       109.7           109.7           0.000    
     75      4     22      2       109.7           109.7           0.000    
     76      5     22      2       109.7           109.7           0.000    
     77      4     22      1       109.7           109.7           0.000    
     78      5     22      1       109.7           109.7           0.000    


     78 TIME-VARIANT SPECIFIED-HEAD CELLS

 SOLVING FOR HEAD 


     3 CALLS TO PCG ROUTINE FOR TIME STEP   1 IN STRESS PERIOD   97
    52 TOTAL ITERATIONS

 MAXIMUM HEAD CHANGE FOR EACH ITERATION (1 INDICATES THE FIRST INNER ITERATION):

    HEAD CHANGE    HEAD CHANGE    HEAD CHANGE    HEAD CHANGE    HEAD CHANGE 
   LAYER,ROW,COL  LAYER,ROW,COL  LAYER,ROW,COL  LAYER,ROW,COL  LAYER,ROW,COL
 ---------------------------------------------------------------------------
  1  0.1460      0 -0.9664E-01  0  0.8401E-01  0  0.6562E-01  0  0.9106E-01
   (  5, 21,  2)  (  5, 17,  1)  (  5, 16,  2)  (  5, 17,  1)  (  5, 19,  1)
  0  0.5324E-01  0 -0.4669E-01  0 -0.3475E-01  0  0.3067E-01  0 -0.1794E-01
   (  5, 20,  1)  (  5, 18,  1)  (  5, 19,  1)  (  5, 18,  1)  (  5, 18,  4)
  0  0.1377E-01  0  0.8250E-02  0 -0.7263E-02  0  0.6513E-02  0  0.3975E-02
   (  5, 17,  3)  (  5, 14,  1)  (  5, 16,  2)  (  5, 12,  5)  (  5, 19,  3)
  0 -0.2613E-02  0 -0.2190E-02  0 -0.1869E-02  0 -0.2587E-02  0  0.9028E-03
   (  5, 18,  3)  (  5, 18,  2)  (  5, 16,  3)  (  5, 19,  3)  (  5, 18,  3)
  0 -0.7986E-03  0  0.7673E-03  0 -0.5993E-03  0  0.5836E-03  0  0.2785E-03
   (  5, 17,  2)  (  5, 16,  1)  (  5, 19,  1)  (  5, 19,  2)  (  5, 18,  5)
  0  0.2102E-03  0  0.1506E-03  0  0.8282E-04  0 -0.1064E-03  0 -0.6323E-04
   (  5, 20,  3)  (  5, 14,  2)  (  5, 19,  1)  (  5, 18,  1)  (  5,  6,  1)
  1 -0.8231E-04  0  0.1096E-03  0 -0.9813E-04  0 -0.7718E-04  0  0.6033E-04
   (  5, 16,  1)  (  5, 14,  1)  (  5, 19,  1)  (  5,  6,  1)  (  5, 19,  1)
  0 -0.5560E-04  0  0.3210E-04  0 -0.3075E-04  0  0.1994E-04  0 -0.1493E-04
   (  5, 18,  1)  (  5, 19,  1)  (  5, 15,  4)  (  5, 16,  4)  (  5, 17,  5)
  0 -0.9520E-05  0  0.8123E-05  0 -0.6682E-05  0  0.5396E-05  0  0.3428E-05
   (  5, 15,  2)  (  5, 17,  2)  (  5, 18,  2)  (  5, 19,  2)  (  5, 16,  1)
  0  0.2810E-05  0 -0.2265E-05  0 -0.1546E-05  0 -0.1110E-05  0  0.1046E-05
   (  5, 18,  4)  (  5, 18,  4)  (  5, 15,  3)  (  5, 18,  1)  (  5, 19,  3)
  0 -0.7658E-06  1  0.5376E-06
   (  5, 17,  2)  (  5, 15,  3)

 MAXIMUM RESIDUAL FOR EACH ITERATION (1 INDICATES THE FIRST INNER ITERATION):

    RESIDUAL       RESIDUAL       RESIDUAL       RESIDUAL       RESIDUAL    
   LAYER,ROW,COL  LAYER,ROW,COL  LAYER,ROW,COL  LAYER,ROW,COL  LAYER,ROW,COL
 ---------------------------------------------------------------------------
  1 -0.4302E-02  0 -0.3885E-02  0 -0.3502E-02  0 -0.2985E-02  0 -0.2385E-02
   (  3, 17, 17)  (  3, 17, 17)  (  3, 17, 17)  (  3, 17, 17)  (  3, 17, 17)
  0 -0.1792E-02  0 -0.1203E-02  0 -0.7299E-03  0 -0.4380E-03  0 -0.2796E-03
   (  3, 17, 17)  (  3, 17, 17)  (  3, 17, 17)  (  3, 20, 11)  (  3, 20, 11)
  0 -0.1834E-03  0 -0.1533E-03  0 -0.1441E-03  0 -0.1159E-03  0 -0.9109E-04
   (  4, 16, 17)  (  4, 16, 17)  (  4, 16, 17)  (  4, 16, 17)  (  4, 16, 17)
  0 -0.6877E-04  0 -0.6218E-04  0 -0.4620E-04  0 -0.3306E-04  0 -0.2281E-04
   (  4, 16, 17)  (  4, 16, 17)  (  4, 16, 17)  (  4, 16, 17)  (  4, 16, 17)
  0 -0.1820E-04  0 -0.1579E-04  0 -0.1361E-04  0 -0.9336E-05  0 -0.5779E-05
   (  4, 16, 17)  (  4, 16, 17)  (  4, 16, 17)  (  4, 16, 17)  (  4, 16, 17)
  0  0.3516E-05  0  0.1942E-05  0  0.1682E-05  0  0.8726E-06  0 -0.6091E-06
   (  3, 21,  6)  (  3, 21,  6)  (  3, 21,  6)  (  3, 21,  6)  (  3, 17, 17)
  1 -0.8955E-06  0 -0.8007E-06  0 -0.6240E-06  0 -0.4546E-06  0 -0.3943E-06
   (  3, 17, 17)  (  3, 17, 17)  (  3, 17, 17)  (  3, 17, 17)  (  3, 17, 17)
  0 -0.2724E-06  0  0.2551E-06  0  0.1880E-06  0  0.1423E-06  0 -0.1014E-06
   (  3, 17, 17)  (  4, 18, 14)  (  4, 18, 14)  (  4, 18, 14)  (  3, 17, 17)
  0 -0.8650E-07  0 -0.7484E-07  0 -0.5674E-07  0 -0.4222E-07  0 -0.3409E-07
   (  3, 17, 17)  (  3, 17, 17)  (  3, 17, 17)  (  3, 17, 17)  (  3, 17, 17)
  0 -0.2654E-07  0 -0.1948E-07  0 -0.1473E-07  0 -0.1319E-07  0 -0.1030E-07
   (  3, 17, 17)  (  3, 17, 17)  (  3, 17, 17)  (  3, 17, 17)  (  3, 17, 17)
  0 -0.8968E-08  1 -0.8655E-08
   (  3, 17, 17)  (  3, 17, 17)



 OUTPUT CONTROL FOR STRESS PERIOD   97   TIME STEP    1
    SAVE HEAD FOR ALL LAYERS
    SAVE DRAWDOWN FOR ALL LAYERS
    SAVE BUDGET
    PRINT BUDGET
 UBDSV1 SAVING "         STORAGE" ON UNIT   9 AT TIME STEP  1, STRESS PERIOD  97
 UBDSV2 SAVING "   CONSTANT HEAD" ON UNIT   9 AT TIME STEP  1, STRESS PERIOD  97
 UBDSV1 SAVING "FLOW RIGHT FACE " ON UNIT   9 AT TIME STEP  1, STRESS PERIOD  97
 UBDSV1 SAVING "FLOW FRONT FACE " ON UNIT   9 AT TIME STEP  1, STRESS PERIOD  97
 UBDSV1 SAVING "FLOW LOWER FACE " ON UNIT   9 AT TIME STEP  1, STRESS PERIOD  97
 UBDSV3 SAVING "        RECHARGE" ON UNIT   9 AT TIME STEP  1, STRESS PERIOD  97

 HEAD WILL BE SAVED ON UNIT   37 AT END OF TIME STEP    1, STRESS PERIOD   97

 DRAWDOWN WILL BE SAVED ON UNIT   38 AT END OF TIME STEP    1, STRESS PERIOD   97
1
  VOLUMETRIC BUDGET FOR ENTIRE MODEL AT END OF TIME STEP    1, STRESS PERIOD  97
  ------------------------------------------------------------------------------

     CUMULATIVE VOLUMES      L**3       RATES FOR THIS TIME STEP      L**3/T
     ------------------                 ------------------------

           IN:                                      IN:
           ---                                      ---
             STORAGE =       13888.5889               STORAGE =           0.0000
       CONSTANT HEAD =       24471.6777         CONSTANT HEAD =       1.7018E-03
            RECHARGE =        1132.4421              RECHARGE =       9.7813E-05

            TOTAL IN =       39492.7070              TOTAL IN =       1.7996E-03

          OUT:                                     OUT:
          ----                                     ----
             STORAGE =       10394.7754               STORAGE =       1.3763E-03
       CONSTANT HEAD =       29099.0215         CONSTANT HEAD =       4.2340E-04
            RECHARGE =           0.0000              RECHARGE =           0.0000

           TOTAL OUT =       39493.7969             TOTAL OUT =       1.7997E-03

            IN - OUT =          -1.0898              IN - OUT =      -1.0629E-07

 PERCENT DISCREPANCY =          -0.00     PERCENT DISCREPANCY =          -0.01






         TIME SUMMARY AT END OF TIME STEP    1 IN STRESS PERIOD   97
                    SECONDS     MINUTES      HOURS       DAYS        YEARS
                    -----------------------------------------------------------
   TIME STEP LENGTH  86400.      1440.0      24.000      1.0000     2.73785E-03
 STRESS PERIOD TIME  86400.      1440.0      24.000      1.0000     2.73785E-03
         TOTAL TIME 1.15776E+07 1.92960E+05  3216.0      134.00     0.36687    
1
1
                            STRESS PERIOD NO.   98, LENGTH =   86400.00    
                            -----------------------------------------------

                              NUMBER OF TIME STEPS =     1

                               MULTIPLIER FOR DELT =     1.000

                            INITIAL TIME STEP SIZE =   86400.00    

 REUSING RECH FROM LAST STRESS PERIOD

 CHD NO.   LAYER   ROW   COL    START HEAD        END HEAD         IFACE           
 ----------------------------------------------------------------------------------
      1      4      1      1       109.9           109.9           0.000    
      2      5      1      1       109.9           109.9           0.000    
      3      4      1      2       109.9           109.9           0.000    
      4      5      1      2       109.9           109.9           0.000    
      5      4      1      3       109.9           109.9           0.000    
      6      5      1      3       109.9           109.9           0.000    
      7      4      1      4       109.9           109.9           0.000    
      8      5      1      4       109.9           109.9           0.000    
      9      4      1      5       109.9           109.9           0.000    
     10      5      1      5       109.9           109.9           0.000    
     11      4      1      6       109.9           109.9           0.000    
     12      5      1      6       109.9           109.9           0.000    
     13      4      1      7       109.9           109.9           0.000    
     14      5      1      7       109.9           109.9           0.000    
     15      4      1      8       109.9           109.9           0.000    
     16      5      1      8       109.9           109.9           0.000    
     17      4      1      9       109.9           109.9           0.000    
     18      5      1      9       109.9           109.9           0.000    
     19      4      1     10       109.9           109.9           0.000    
     20      5      1     10       109.9           109.9           0.000    
     21      4      1     11       109.9           109.9           0.000    
     22      5      1     11       109.9           109.9           0.000    
     23      4      1     12       109.9           109.9           0.000    
     24      5      1     12       109.9           109.9           0.000    
     25      4      1     13       109.9           109.9           0.000    
     26      5      1     13       109.9           109.9           0.000    
     27      4      1     14       109.9           109.9           0.000    
     28      5      1     14       109.9           109.9           0.000    
     29      4      1     15       109.9           109.9           0.000    
     30      5      1     15       109.9           109.9           0.000    
     31      4      1     16       109.9           109.9           0.000    
     32      5      1     16       109.9           109.9           0.000    
     33      4      1     17       109.9           109.9           0.000    
     34      5      1     17       109.9           109.9           0.000    
     35      4     17     17       109.8           109.9           0.000    
     36      5     17     17       109.8           109.9           0.000    
     37      4     18     17       109.8           109.9           0.000    
     38      5     18     17       109.8           109.9           0.000    
     39      4     18     16       109.8           109.9           0.000    
     40      5     18     16       109.8           109.9           0.000    
     41      4     19     16       109.8           109.9           0.000    
     42      5     19     16       109.8           109.9           0.000    
     43      4     19     15       109.8           109.9           0.000    
     44      5     19     15       109.8           109.9           0.000    
     45      4     20     15       109.8           109.9           0.000    
     46      5     20     15       109.8           109.9           0.000    
     47      4     20     14       109.8           109.9           0.000    
     48      5     20     14       109.8           109.9           0.000    
     49      4     20     13       109.8           109.9           0.000    
     50      5     20     13       109.8           109.9           0.000    
     51      4     20     12       109.7           109.9           0.000    
     52      5     20     12       109.7           109.9           0.000    
     53      4     20     11       109.7           109.9           0.000    
     54      5     20     11       109.7           109.9           0.000    
     55      4     21     11       109.7           109.9           0.000    
     56      5     21     11       109.7           109.9           0.000    
     57      4     21     10       109.7           109.9           0.000    
     58      5     21     10       109.7           109.9           0.000    
     59      4     21      9       109.7           109.9           0.000    
     60      5     21      9       109.7           109.9           0.000    
     61      4     21      8       109.7           109.9           0.000    
     62      5     21      8       109.7           109.9           0.000    
     63      4     21      7       109.7           109.9           0.000    
     64      5     21      7       109.7           109.9           0.000    
     65      4     21      6       109.7           109.9           0.000    
     66      5     21      6       109.7           109.9           0.000    
     67      4     21      5       109.7           109.9           0.000    
     68      5     21      5       109.7           109.9           0.000    
     69      4     22      5       109.7           109.9           0.000    
     70      5     22      5       109.7           109.9           0.000    
     71      4     22      4       109.7           109.9           0.000    
     72      5     22      4       109.7           109.9           0.000    
     73      4     22      3       109.7           109.9           0.000    
     74      5     22      3       109.7           109.9           0.000    
     75      4     22      2       109.7           109.9           0.000    
     76      5     22      2       109.7           109.9           0.000    
     77      4     22      1       109.7           109.9           0.000    
     78      5     22      1       109.7           109.9           0.000    


     78 TIME-VARIANT SPECIFIED-HEAD CELLS

 SOLVING FOR HEAD 


     4 CALLS TO PCG ROUTINE FOR TIME STEP   1 IN STRESS PERIOD   98
    61 TOTAL ITERATIONS

 MAXIMUM HEAD CHANGE FOR EACH ITERATION (1 INDICATES THE FIRST INNER ITERATION):

    HEAD CHANGE    HEAD CHANGE    HEAD CHANGE    HEAD CHANGE    HEAD CHANGE 
   LAYER,ROW,COL  LAYER,ROW,COL  LAYER,ROW,COL  LAYER,ROW,COL  LAYER,ROW,COL
 ---------------------------------------------------------------------------
  1  0.3095      0 -0.2039      0  0.1789      0  0.1401      0  0.1908    
   (  5, 21,  2)  (  5, 17,  1)  (  5, 16,  2)  (  5, 17,  1)  (  5, 19,  1)
  0  0.1131      0 -0.9800E-01  0 -0.7248E-01  0  0.6515E-01  0 -0.3788E-01
   (  5, 20,  1)  (  5, 18,  1)  (  5, 19,  1)  (  5, 18,  1)  (  5, 18,  4)
  0  0.3143E-01  0 -0.2681E-01  0  0.1670E-01  0  0.1376E-01  0  0.9231E-02
   (  5, 17,  3)  (  5, 16,  3)  (  5, 15,  1)  (  5, 12,  5)  (  5, 19,  3)
  0 -0.9137E-02  0  0.5566E-02  0 -0.4799E-02  0 -0.5310E-02  0 -0.1925E-02
   (  5, 18,  2)  (  5, 18,  1)  (  5, 16,  1)  (  5, 19,  3)  (  5, 17,  2)
  0  0.1981E-02  0 -0.1270E-02  0  0.1323E-02  0 -0.5788E-03  0  0.7012E-03
   (  5, 16,  1)  (  5, 15,  1)  (  5, 19,  2)  (  5, 20,  3)  (  5, 19,  1)
  0  0.4107E-03  0  0.3777E-03  0  0.2787E-03  0  0.2053E-03  0 -0.1283E-03
   (  5, 20,  3)  (  5, 14,  2)  (  5, 18,  1)  (  5,  6,  1)  (  5,  6,  1)
  1  0.4870E-03  0 -0.4559E-03  0  0.5848E-03  0 -0.3628E-03  0  0.1712E-03
   (  5, 17,  2)  (  5, 15,  2)  (  5, 20,  1)  (  5,  6,  1)  (  5, 17,  1)
  0  0.1595E-03  0 -0.1371E-03  0  0.7425E-04  0  0.5400E-04  0 -0.4662E-04
   (  5,  6,  1)  (  5, 15,  4)  (  5, 19,  1)  (  5, 16,  3)  (  5, 17,  5)
  0 -0.3551E-04  0  0.2909E-04  0 -0.2304E-04  0 -0.1487E-04  0 -0.1143E-04
   (  5, 16,  1)  (  5, 14,  1)  (  5, 19,  4)  (  5, 12,  5)  (  5, 17,  2)
  0 -0.1042E-04  0  0.6188E-05  0 -0.6280E-05  0  0.4183E-05  0 -0.3282E-05
   (  5, 17,  1)  (  5, 18,  2)  (  5, 20,  1)  (  5, 19,  1)  (  5, 17,  2)
  0  0.3112E-05  0  0.1764E-05  0 -0.1323E-05  0  0.1243E-05  0 -0.8371E-06
   (  5, 15,  2)  (  5, 17,  5)  (  5, 18,  1)  (  5, 19,  1)  (  5, 20,  2)
  1  0.1715E-05  0 -0.1971E-05  0 -0.1761E-05  0  0.1762E-05  0 -0.9571E-06
   (  5, 20,  3)  (  5, 19,  1)  (  5, 15,  1)  (  5, 19,  1)  (  5, 18,  5)
  1  0.5004E-06
   (  5, 15,  4)

 MAXIMUM RESIDUAL FOR EACH ITERATION (1 INDICATES THE FIRST INNER ITERATION):

    RESIDUAL       RESIDUAL       RESIDUAL       RESIDUAL       RESIDUAL    
   LAYER,ROW,COL  LAYER,ROW,COL  LAYER,ROW,COL  LAYER,ROW,COL  LAYER,ROW,COL
 ---------------------------------------------------------------------------
  1 -0.8829E-02  0 -0.7959E-02  0 -0.7158E-02  0 -0.6090E-02  0 -0.4862E-02
   (  3, 17, 17)  (  3, 17, 17)  (  3, 17, 17)  (  3, 17, 17)  (  3, 17, 17)
  0 -0.3653E-02  0 -0.2450E-02  0 -0.1477E-02  0 -0.8717E-03  0 -0.5506E-03
   (  3, 17, 17)  (  3, 17, 17)  (  3, 17, 17)  (  3, 20, 11)  (  3, 20, 11)
  0 -0.3735E-03  0 -0.3180E-03  0 -0.2926E-03  0 -0.2345E-03  0 -0.1844E-03
   (  4, 16, 17)  (  4, 16, 17)  (  4, 16, 17)  (  4, 16, 17)  (  4, 16, 17)
  0 -0.1472E-03  0 -0.1267E-03  0 -0.9328E-04  0 -0.6671E-04  0 -0.4574E-04
   (  4, 16, 17)  (  4, 16, 17)  (  4, 16, 17)  (  4, 16, 17)  (  4, 16, 17)
  0 -0.3393E-04  0 -0.3046E-04  0 -0.2037E-04  0  0.1611E-04  0  0.1191E-04
   (  4, 16, 17)  (  4, 16, 17)  (  4, 16, 17)  (  3, 21,  6)  (  3, 21,  6)
  0  0.7398E-05  0  0.4898E-05  0  0.3681E-05  0  0.1798E-05  0 -0.1163E-05
   (  3, 21,  6)  (  3, 21,  6)  (  3, 21,  6)  (  3, 21,  6)  (  3, 17, 17)
  1 -0.2615E-05  0  0.2311E-05  0  0.1868E-05  0 -0.1371E-05  0 -0.1271E-05
   (  3, 17, 17)  (  5,  6,  1)  (  5,  6,  1)  (  3, 17, 17)  (  3, 17, 17)
  0 -0.9325E-06  0 -0.6971E-06  0 -0.5882E-06  0 -0.4824E-06  0 -0.3702E-06
   (  3, 17, 17)  (  3, 17, 17)  (  3, 17, 17)  (  3, 17, 17)  (  3, 17, 17)
  0 -0.3132E-06  0 -0.2510E-06  0 -0.1749E-06  0 -0.1327E-06  0 -0.8913E-07
   (  3, 17, 17)  (  3, 17, 17)  (  3, 17, 17)  (  3, 17, 17)  (  3, 17, 17)
  0 -0.6951E-07  0 -0.6116E-07  0 -0.4690E-07  0 -0.2969E-07  0 -0.2476E-07
   (  4, 18, 14)  (  4, 18, 14)  (  4, 18, 14)  (  3, 17, 17)  (  3, 17, 17)
  0 -0.1971E-07  0 -0.1386E-07  0 -0.9689E-08  0 -0.7733E-08  0 -0.6034E-08
   (  3, 17, 17)  (  3, 17, 17)  (  3, 17, 17)  (  3, 17, 17)  (  3, 17, 17)
  1  0.7970E-08  0  0.6364E-08  0 -0.6381E-08  0  0.3254E-08  0  0.2362E-08
   (  3, 18, 15)  (  3, 18, 15)  (  5, 19,  1)  (  3, 19, 14)  (  4,  5, 17)
  1  0.2125E-08
   (  4,  5, 17)



 OUTPUT CONTROL FOR STRESS PERIOD   98   TIME STEP    1
    SAVE HEAD FOR ALL LAYERS
    SAVE DRAWDOWN FOR ALL LAYERS
    SAVE BUDGET
    PRINT BUDGET
 UBDSV1 SAVING "         STORAGE" ON UNIT   9 AT TIME STEP  1, STRESS PERIOD  98
 UBDSV2 SAVING "   CONSTANT HEAD" ON UNIT   9 AT TIME STEP  1, STRESS PERIOD  98
 UBDSV1 SAVING "FLOW RIGHT FACE " ON UNIT   9 AT TIME STEP  1, STRESS PERIOD  98
 UBDSV1 SAVING "FLOW FRONT FACE " ON UNIT   9 AT TIME STEP  1, STRESS PERIOD  98
 UBDSV1 SAVING "FLOW LOWER FACE " ON UNIT   9 AT TIME STEP  1, STRESS PERIOD  98
 UBDSV3 SAVING "        RECHARGE" ON UNIT   9 AT TIME STEP  1, STRESS PERIOD  98

 HEAD WILL BE SAVED ON UNIT   37 AT END OF TIME STEP    1, STRESS PERIOD   98

 DRAWDOWN WILL BE SAVED ON UNIT   38 AT END OF TIME STEP    1, STRESS PERIOD   98
1
  VOLUMETRIC BUDGET FOR ENTIRE MODEL AT END OF TIME STEP    1, STRESS PERIOD  98
  ------------------------------------------------------------------------------

     CUMULATIVE VOLUMES      L**3       RATES FOR THIS TIME STEP      L**3/T
     ------------------                 ------------------------

           IN:                                      IN:
           ---                                      ---
             STORAGE =       13888.5889               STORAGE =           0.0000
       CONSTANT HEAD =       24776.4062         CONSTANT HEAD =       3.5269E-03
            RECHARGE =        1140.8932              RECHARGE =       9.7813E-05

            TOTAL IN =       39805.8906              TOTAL IN =       3.6248E-03

          OUT:                                     OUT:
          ----                                     ----
             STORAGE =       10707.2012               STORAGE =       3.6160E-03
       CONSTANT HEAD =       29099.7812         CONSTANT HEAD =       8.7933E-06
            RECHARGE =           0.0000              RECHARGE =           0.0000

           TOTAL OUT =       39806.9844             TOTAL OUT =       3.6248E-03

            IN - OUT =          -1.0938              IN - OUT =      -7.7067E-08

 PERCENT DISCREPANCY =          -0.00     PERCENT DISCREPANCY =          -0.00






         TIME SUMMARY AT END OF TIME STEP    1 IN STRESS PERIOD   98
                    SECONDS     MINUTES      HOURS       DAYS        YEARS
                    -----------------------------------------------------------
   TIME STEP LENGTH  86400.      1440.0      24.000      1.0000     2.73785E-03
 STRESS PERIOD TIME  86400.      1440.0      24.000      1.0000     2.73785E-03
         TOTAL TIME 1.16640E+07 1.94400E+05  3240.0      135.00     0.36961    
1
1
                            STRESS PERIOD NO.   99, LENGTH =   86400.00    
                            -----------------------------------------------

                              NUMBER OF TIME STEPS =     1

                               MULTIPLIER FOR DELT =     1.000

                            INITIAL TIME STEP SIZE =   86400.00    

 REUSING RECH FROM LAST STRESS PERIOD

 CHD NO.   LAYER   ROW   COL    START HEAD        END HEAD         IFACE           
 ----------------------------------------------------------------------------------
      1      4      1      1       109.9           110.0           0.000    
      2      5      1      1       109.9           110.0           0.000    
      3      4      1      2       109.9           110.0           0.000    
      4      5      1      2       109.9           110.0           0.000    
      5      4      1      3       109.9           110.0           0.000    
      6      5      1      3       109.9           110.0           0.000    
      7      4      1      4       109.9           110.0           0.000    
      8      5      1      4       109.9           110.0           0.000    
      9      4      1      5       109.9           110.0           0.000    
     10      5      1      5       109.9           110.0           0.000    
     11      4      1      6       109.9           110.0           0.000    
     12      5      1      6       109.9           110.0           0.000    
     13      4      1      7       109.9           110.0           0.000    
     14      5      1      7       109.9           110.0           0.000    
     15      4      1      8       109.9           110.0           0.000    
     16      5      1      8       109.9           110.0           0.000    
     17      4      1      9       109.9           110.0           0.000    
     18      5      1      9       109.9           110.0           0.000    
     19      4      1     10       109.9           110.0           0.000    
     20      5      1     10       109.9           110.0           0.000    
     21      4      1     11       109.9           110.0           0.000    
     22      5      1     11       109.9           110.0           0.000    
     23      4      1     12       109.9           110.0           0.000    
     24      5      1     12       109.9           110.0           0.000    
     25      4      1     13       109.9           110.0           0.000    
     26      5      1     13       109.9           110.0           0.000    
     27      4      1     14       109.9           110.0           0.000    
     28      5      1     14       109.9           110.0           0.000    
     29      4      1     15       109.9           110.0           0.000    
     30      5      1     15       109.9           110.0           0.000    
     31      4      1     16       109.9           110.0           0.000    
     32      5      1     16       109.9           110.0           0.000    
     33      4      1     17       109.9           110.0           0.000    
     34      5      1     17       109.9           110.0           0.000    
     35      4     17     17       109.9           109.9           0.000    
     36      5     17     17       109.9           109.9           0.000    
     37      4     18     17       109.9           109.9           0.000    
     38      5     18     17       109.9           109.9           0.000    
     39      4     18     16       109.9           109.9           0.000    
     40      5     18     16       109.9           109.9           0.000    
     41      4     19     16       109.9           109.9           0.000    
     42      5     19     16       109.9           109.9           0.000    
     43      4     19     15       109.9           109.9           0.000    
     44      5     19     15       109.9           109.9           0.000    
     45      4     20     15       109.9           109.9           0.000    
     46      5     20     15       109.9           109.9           0.000    
     47      4     20     14       109.9           109.9           0.000    
     48      5     20     14       109.9           109.9           0.000    
     49      4     20     13       109.9           109.9           0.000    
     50      5     20     13       109.9           109.9           0.000    
     51      4     20     12       109.9           109.9           0.000    
     52      5     20     12       109.9           109.9           0.000    
     53      4     20     11       109.9           109.9           0.000    
     54      5     20     11       109.9           109.9           0.000    
     55      4     21     11       109.9           109.9           0.000    
     56      5     21     11       109.9           109.9           0.000    
     57      4     21     10       109.9           109.9           0.000    
     58      5     21     10       109.9           109.9           0.000    
     59      4     21      9       109.9           109.9           0.000    
     60      5     21      9       109.9           109.9           0.000    
     61      4     21      8       109.9           109.9           0.000    
     62      5     21      8       109.9           109.9           0.000    
     63      4     21      7       109.9           109.9           0.000    
     64      5     21      7       109.9           109.9           0.000    
     65      4     21      6       109.9           109.9           0.000    
     66      5     21      6       109.9           109.9           0.000    
     67      4     21      5       109.9           109.9           0.000    
     68      5     21      5       109.9           109.9           0.000    
     69      4     22      5       109.9           109.9           0.000    
     70      5     22      5       109.9           109.9           0.000    
     71      4     22      4       109.9           109.9           0.000    
     72      5     22      4       109.9           109.9           0.000    
     73      4     22      3       109.9           109.9           0.000    
     74      5     22      3       109.9           109.9           0.000    
     75      4     22      2       109.9           109.9           0.000    
     76      5     22      2       109.9           109.9           0.000    
     77      4     22      1       109.9           109.9           0.000    
     78      5     22      1       109.9           109.9           0.000    


     78 TIME-VARIANT SPECIFIED-HEAD CELLS

 SOLVING FOR HEAD 


     3 CALLS TO PCG ROUTINE FOR TIME STEP   1 IN STRESS PERIOD   99
    50 TOTAL ITERATIONS

 MAXIMUM HEAD CHANGE FOR EACH ITERATION (1 INDICATES THE FIRST INNER ITERATION):

    HEAD CHANGE    HEAD CHANGE    HEAD CHANGE    HEAD CHANGE    HEAD CHANGE 
   LAYER,ROW,COL  LAYER,ROW,COL  LAYER,ROW,COL  LAYER,ROW,COL  LAYER,ROW,COL
 ---------------------------------------------------------------------------
  1  0.6871E-01  0 -0.4175E-01  0 -0.3633E-01  0  0.2759E-01  0  0.3238E-01
   (  5, 21,  2)  (  5, 18,  1)  (  5, 20,  1)  (  5, 18,  1)  (  5, 19,  1)
  0  0.2314E-01  0 -0.1753E-01  0  0.1551E-01  0  0.1174E-01  0  0.7612E-02
   (  5, 17,  4)  (  5, 18,  1)  (  5, 17,  1)  (  5, 18,  1)  (  5, 19,  1)
  0  0.5795E-02  0  0.3550E-02  0 -0.3931E-02  0  0.1887E-02  0  0.1391E-02
   (  5, 14,  5)  (  5, 15,  1)  (  5, 16,  2)  (  5, 15,  3)  (  5, 19,  3)
  0 -0.1538E-02  0  0.8387E-03  0 -0.8535E-03  0 -0.8830E-03  0 -0.5367E-03
   (  5, 18,  2)  (  5, 18,  1)  (  5, 16,  1)  (  5, 19,  3)  (  5, 17,  2)
  0  0.2744E-03  0 -0.3205E-03  0  0.2068E-03  0 -0.1709E-03  0  0.1235E-03
   (  5, 16,  1)  (  5, 20,  3)  (  5, 19,  2)  (  5, 20,  1)  (  5, 18,  5)
  0 -0.6610E-04  0  0.5121E-04  0  0.4174E-04  0 -0.5680E-04  0  0.2101E-04
   (  5, 17,  5)  (  5, 19,  5)  (  5, 19,  2)  (  5, 18,  1)  (  5, 15,  2)
  1 -0.6339E-04  0  0.1075E-03  0 -0.8477E-04  0  0.9282E-04  0  0.4784E-04
   (  5, 16,  2)  (  5, 18,  1)  (  5, 18,  1)  (  5,  6,  1)  (  5, 12,  4)
  0 -0.4271E-04  0 -0.2416E-04  0  0.1787E-04  0  0.1432E-04  0 -0.8403E-05
   (  5, 13,  3)  (  5, 12,  5)  (  5, 18,  3)  (  5, 20,  1)  (  5, 21,  1)
  0 -0.5259E-05  0  0.6212E-05  0 -0.4229E-05  0 -0.2396E-05  0 -0.3032E-05
   (  5, 15,  1)  (  5, 16,  2)  (  5, 16,  4)  (  5, 16,  1)  (  5, 19,  4)
  0 -0.1740E-05  0 -0.2479E-05  0 -0.1547E-05  0 -0.8033E-06  1  0.7670E-06
   (  5, 14,  3)  (  5, 17,  1)  (  5, 17,  5)  (  5, 18,  3)  (  5, 19,  3)

 MAXIMUM RESIDUAL FOR EACH ITERATION (1 INDICATES THE FIRST INNER ITERATION):

    RESIDUAL       RESIDUAL       RESIDUAL       RESIDUAL       RESIDUAL    
   LAYER,ROW,COL  LAYER,ROW,COL  LAYER,ROW,COL  LAYER,ROW,COL  LAYER,ROW,COL
 ---------------------------------------------------------------------------
  1 -0.1104E-02  0 -0.9984E-03  0 -0.9062E-03  0 -0.7954E-03  0 -0.6512E-03
   (  3, 17, 17)  (  3, 17, 17)  (  3, 17, 17)  (  3, 17, 17)  (  3, 17, 17)
  0 -0.4924E-03  0 -0.3155E-03  0 -0.1762E-03  0 -0.9667E-04  0 -0.5897E-04
   (  3, 17, 17)  (  3, 17, 17)  (  3, 17, 17)  (  3, 17, 17)  (  3, 20, 11)
  0  0.5137E-04  0  0.4324E-04  0  0.3832E-04  0  0.2938E-04  0  0.2305E-04
   (  4, 21,  2)  (  4, 21,  2)  (  4, 21,  2)  (  4, 21,  2)  (  4, 21,  2)
  0  0.1900E-04  0  0.1605E-04  0  0.1115E-04  0  0.7995E-05  0  0.6097E-05
   (  4, 21,  2)  (  4, 21,  2)  (  4, 21,  2)  (  3, 21,  6)  (  3, 21,  6)
  0  0.5752E-05  0  0.4449E-05  0  0.3797E-05  0  0.2934E-05  0  0.1905E-05
   (  3, 21,  6)  (  3, 21,  6)  (  3, 21,  6)  (  3, 21,  6)  (  3, 21,  6)
  0  0.1182E-05  0  0.6529E-06  0  0.5085E-06  0  0.3176E-06  0  0.2911E-06
   (  3, 21,  6)  (  3, 21,  6)  (  3, 21,  6)  (  4, 20,  3)  (  4, 20,  3)
  1  0.2844E-06  0 -0.6291E-06  0 -0.5309E-06  0  0.1989E-06  0  0.1495E-06
   (  4, 20,  3)  (  5,  6,  1)  (  5,  6,  1)  (  5,  6,  1)  (  4, 18, 14)
  0  0.1491E-06  0  0.1314E-06  0  0.1011E-06  0  0.7390E-07  0  0.4439E-07
   (  4, 18, 14)  (  4, 18, 14)  (  4, 18, 14)  (  4, 18, 14)  (  4, 17, 15)
  0  0.3540E-07  0  0.2811E-07  0  0.2492E-07  0  0.1936E-07  0  0.1907E-07
   (  4, 21,  2)  (  4, 21,  2)  (  4, 21,  2)  (  4, 21,  2)  (  4, 21,  2)
  0  0.1479E-07  0  0.9206E-08  0 -0.8343E-08  0 -0.6264E-08  1 -0.5518E-08
   (  4, 21,  2)  (  4, 21,  2)  (  4, 18, 14)  (  4, 18, 14)  (  4, 18, 14)



 OUTPUT CONTROL FOR STRESS PERIOD   99   TIME STEP    1
    SAVE HEAD FOR ALL LAYERS
    SAVE DRAWDOWN FOR ALL LAYERS
    SAVE BUDGET
    PRINT BUDGET
 UBDSV1 SAVING "         STORAGE" ON UNIT   9 AT TIME STEP  1, STRESS PERIOD  99
 UBDSV2 SAVING "   CONSTANT HEAD" ON UNIT   9 AT TIME STEP  1, STRESS PERIOD  99
 UBDSV1 SAVING "FLOW RIGHT FACE " ON UNIT   9 AT TIME STEP  1, STRESS PERIOD  99
 UBDSV1 SAVING "FLOW FRONT FACE " ON UNIT   9 AT TIME STEP  1, STRESS PERIOD  99
 UBDSV1 SAVING "FLOW LOWER FACE " ON UNIT   9 AT TIME STEP  1, STRESS PERIOD  99
 UBDSV3 SAVING "        RECHARGE" ON UNIT   9 AT TIME STEP  1, STRESS PERIOD  99

 HEAD WILL BE SAVED ON UNIT   37 AT END OF TIME STEP    1, STRESS PERIOD   99

 DRAWDOWN WILL BE SAVED ON UNIT   38 AT END OF TIME STEP    1, STRESS PERIOD   99
1
  VOLUMETRIC BUDGET FOR ENTIRE MODEL AT END OF TIME STEP    1, STRESS PERIOD  99
  ------------------------------------------------------------------------------

     CUMULATIVE VOLUMES      L**3       RATES FOR THIS TIME STEP      L**3/T
     ------------------                 ------------------------

           IN:                                      IN:
           ---                                      ---
             STORAGE =       13888.5889               STORAGE =           0.0000
       CONSTANT HEAD =       24922.5742         CONSTANT HEAD =       1.6917E-03
            RECHARGE =        1149.3442              RECHARGE =       9.7813E-05

            TOTAL IN =       39960.5078              TOTAL IN =       1.7896E-03

          OUT:                                     OUT:
          ----                                     ----
             STORAGE =       10851.1260               STORAGE =       1.6658E-03
       CONSTANT HEAD =       29110.4844         CONSTANT HEAD =       1.2387E-04
            RECHARGE =           0.0000              RECHARGE =           0.0000

           TOTAL OUT =       39961.6094             TOTAL OUT =       1.7897E-03

            IN - OUT =          -1.1016              IN - OUT =      -1.0955E-07

 PERCENT DISCREPANCY =          -0.00     PERCENT DISCREPANCY =          -0.01






         TIME SUMMARY AT END OF TIME STEP    1 IN STRESS PERIOD   99
                    SECONDS     MINUTES      HOURS       DAYS        YEARS
                    -----------------------------------------------------------
   TIME STEP LENGTH  86400.      1440.0      24.000      1.0000     2.73785E-03
 STRESS PERIOD TIME  86400.      1440.0      24.000      1.0000     2.73785E-03
         TOTAL TIME 1.17504E+07 1.95840E+05  3264.0      136.00     0.37235    
1
1
                            STRESS PERIOD NO.  100, LENGTH =   86400.00    
                            -----------------------------------------------

                              NUMBER OF TIME STEPS =     1

                               MULTIPLIER FOR DELT =     1.000

                            INITIAL TIME STEP SIZE =   86400.00    

 REUSING RECH FROM LAST STRESS PERIOD

 CHD NO.   LAYER   ROW   COL    START HEAD        END HEAD         IFACE           
 ----------------------------------------------------------------------------------
      1      4      1      1       110.0           110.0           0.000    
      2      5      1      1       110.0           110.0           0.000    
      3      4      1      2       110.0           110.0           0.000    
      4      5      1      2       110.0           110.0           0.000    
      5      4      1      3       110.0           110.0           0.000    
      6      5      1      3       110.0           110.0           0.000    
      7      4      1      4       110.0           110.0           0.000    
      8      5      1      4       110.0           110.0           0.000    
      9      4      1      5       110.0           110.0           0.000    
     10      5      1      5       110.0           110.0           0.000    
     11      4      1      6       110.0           110.0           0.000    
     12      5      1      6       110.0           110.0           0.000    
     13      4      1      7       110.0           110.0           0.000    
     14      5      1      7       110.0           110.0           0.000    
     15      4      1      8       110.0           110.0           0.000    
     16      5      1      8       110.0           110.0           0.000    
     17      4      1      9       110.0           110.0           0.000    
     18      5      1      9       110.0           110.0           0.000    
     19      4      1     10       110.0           110.0           0.000    
     20      5      1     10       110.0           110.0           0.000    
     21      4      1     11       110.0           110.0           0.000    
     22      5      1     11       110.0           110.0           0.000    
     23      4      1     12       110.0           110.0           0.000    
     24      5      1     12       110.0           110.0           0.000    
     25      4      1     13       110.0           110.0           0.000    
     26      5      1     13       110.0           110.0           0.000    
     27      4      1     14       110.0           110.0           0.000    
     28      5      1     14       110.0           110.0           0.000    
     29      4      1     15       110.0           110.0           0.000    
     30      5      1     15       110.0           110.0           0.000    
     31      4      1     16       110.0           110.0           0.000    
     32      5      1     16       110.0           110.0           0.000    
     33      4      1     17       110.0           110.0           0.000    
     34      5      1     17       110.0           110.0           0.000    
     35      4     17     17       109.9           110.0           0.000    
     36      5     17     17       109.9           110.0           0.000    
     37      4     18     17       109.9           110.0           0.000    
     38      5     18     17       109.9           110.0           0.000    
     39      4     18     16       109.9           110.0           0.000    
     40      5     18     16       109.9           110.0           0.000    
     41      4     19     16       109.9           110.0           0.000    
     42      5     19     16       109.9           110.0           0.000    
     43      4     19     15       109.9           110.0           0.000    
     44      5     19     15       109.9           110.0           0.000    
     45      4     20     15       109.9           110.0           0.000    
     46      5     20     15       109.9           110.0           0.000    
     47      4     20     14       109.9           110.0           0.000    
     48      5     20     14       109.9           110.0           0.000    
     49      4     20     13       109.9           110.0           0.000    
     50      5     20     13       109.9           110.0           0.000    
     51      4     20     12       109.9           110.0           0.000    
     52      5     20     12       109.9           110.0           0.000    
     53      4     20     11       109.9           110.0           0.000    
     54      5     20     11       109.9           110.0           0.000    
     55      4     21     11       109.9           110.0           0.000    
     56      5     21     11       109.9           110.0           0.000    
     57      4     21     10       109.9           110.0           0.000    
     58      5     21     10       109.9           110.0           0.000    
     59      4     21      9       109.9           110.0           0.000    
     60      5     21      9       109.9           110.0           0.000    
     61      4     21      8       109.9           110.0           0.000    
     62      5     21      8       109.9           110.0           0.000    
     63      4     21      7       109.9           109.9           0.000    
     64      5     21      7       109.9           109.9           0.000    
     65      4     21      6       109.9           109.9           0.000    
     66      5     21      6       109.9           109.9           0.000    
     67      4     21      5       109.9           109.9           0.000    
     68      5     21      5       109.9           109.9           0.000    
     69      4     22      5       109.9           109.9           0.000    
     70      5     22      5       109.9           109.9           0.000    
     71      4     22      4       109.9           109.9           0.000    
     72      5     22      4       109.9           109.9           0.000    
     73      4     22      3       109.9           109.9           0.000    
     74      5     22      3       109.9           109.9           0.000    
     75      4     22      2       109.9           109.9           0.000    
     76      5     22      2       109.9           109.9           0.000    
     77      4     22      1       109.9           109.9           0.000    
     78      5     22      1       109.9           109.9           0.000    


     78 TIME-VARIANT SPECIFIED-HEAD CELLS

 SOLVING FOR HEAD 


     3 CALLS TO PCG ROUTINE FOR TIME STEP   1 IN STRESS PERIOD  100
    51 TOTAL ITERATIONS

 MAXIMUM HEAD CHANGE FOR EACH ITERATION (1 INDICATES THE FIRST INNER ITERATION):

    HEAD CHANGE    HEAD CHANGE    HEAD CHANGE    HEAD CHANGE    HEAD CHANGE 
   LAYER,ROW,COL  LAYER,ROW,COL  LAYER,ROW,COL  LAYER,ROW,COL  LAYER,ROW,COL
 ---------------------------------------------------------------------------
  1  0.1122      0 -0.7340E-01  0  0.6531E-01  0  0.5079E-01  0  0.6604E-01
   (  5, 21,  2)  (  5, 17,  1)  (  5, 16,  2)  (  5, 17,  1)  (  5, 19,  1)
  0  0.4113E-01  0 -0.3449E-01  0 -0.2488E-01  0  0.2306E-01  0 -0.1289E-01
   (  5, 20,  1)  (  5, 18,  1)  (  5, 19,  1)  (  5, 18,  1)  (  5, 18,  4)
  0  0.1062E-01  0 -0.8036E-02  0  0.4122E-02  0 -0.4124E-02  0  0.3138E-02
   (  5, 17,  3)  (  5, 16,  3)  (  5, 15,  1)  (  5, 17,  2)  (  5, 19,  3)
  0 -0.3179E-02  0  0.1733E-02  0 -0.1644E-02  0 -0.1835E-02  0  0.6463E-03
   (  5, 18,  2)  (  5, 18,  1)  (  5, 16,  1)  (  5, 19,  3)  (  5, 18,  2)
  0  0.6302E-03  0  0.3645E-03  0  0.4416E-03  0 -0.2219E-03  0  0.2242E-03
   (  5, 17,  5)  (  5, 19,  2)  (  5, 16,  2)  (  5, 16,  1)  (  5, 18,  1)
  0  0.1415E-03  0  0.1068E-03  0  0.6471E-04  0 -0.8210E-04  0 -0.4623E-04
   (  5, 20,  3)  (  5, 14,  2)  (  5, 19,  2)  (  5, 18,  1)  (  5,  6,  1)
  1  0.9753E-04  0  0.1464E-03  0 -0.8554E-04  0  0.7531E-04  0  0.5366E-04
   (  5,  6,  1)  (  5, 18,  3)  (  5, 16,  1)  (  5, 15,  3)  (  5, 19,  1)
  0 -0.5291E-04  0  0.3565E-04  0 -0.2796E-04  0 -0.1297E-04  0  0.1239E-04
   (  5, 18,  1)  (  5, 19,  1)  (  5,  8,  1)  (  5, 18,  4)  (  5, 15,  4)
  0 -0.8821E-05  0 -0.6077E-05  0  0.3184E-05  0 -0.4002E-05  0  0.3187E-05
   (  5, 16,  3)  (  5, 18,  2)  (  5, 16,  2)  (  5, 15,  1)  (  5, 16,  1)
  0  0.2785E-05  0 -0.1706E-05  0  0.2049E-05  0  0.1123E-05  0  0.9495E-06
   (  5, 20,  1)  (  5, 18,  1)  (  5, 18,  2)  (  5, 17,  3)  (  5, 19,  3)
  1 -0.5329E-06
   (  5, 19,  4)

 MAXIMUM RESIDUAL FOR EACH ITERATION (1 INDICATES THE FIRST INNER ITERATION):

    RESIDUAL       RESIDUAL       RESIDUAL       RESIDUAL       RESIDUAL    
   LAYER,ROW,COL  LAYER,ROW,COL  LAYER,ROW,COL  LAYER,ROW,COL  LAYER,ROW,COL
 ---------------------------------------------------------------------------
  1 -0.2815E-02  0 -0.2514E-02  0 -0.2238E-02  0 -0.1886E-02  0 -0.1495E-02
   (  3, 17, 17)  (  3, 17, 17)  (  3, 17, 17)  (  3, 17, 17)  (  3, 17, 17)
  0 -0.1111E-02  0 -0.7338E-03  0 -0.4283E-03  0 -0.2397E-03  0 -0.1464E-03
   (  3, 17, 17)  (  3, 17, 17)  (  3, 17, 17)  (  3, 20, 11)  (  3, 20, 11)
  0  0.1178E-03  0 -0.9313E-04  0 -0.8772E-04  0 -0.7150E-04  0 -0.5596E-04
   (  4, 21,  2)  (  4, 16, 17)  (  4, 16, 17)  (  4, 16, 17)  (  4, 16, 17)
  0 -0.4268E-04  0 -0.3772E-04  0 -0.2764E-04  0 -0.1949E-04  0 -0.1309E-04
   (  4, 16, 17)  (  4, 16, 17)  (  4, 16, 17)  (  4, 16, 17)  (  4, 16, 17)
  0  0.9839E-05  0  0.8483E-05  0  0.6747E-05  0  0.6216E-05  0  0.4034E-05
   (  3, 21,  6)  (  3, 21,  6)  (  3, 21,  6)  (  3, 21,  6)  (  3, 21,  6)
  0  0.2473E-05  0  0.1318E-05  0  0.1106E-05  0  0.5520E-06  0 -0.3791E-06
   (  3, 21,  6)  (  3, 21,  6)  (  3, 21,  6)  (  3, 21,  6)  (  5, 15, 17)
  1  0.4513E-06  0  0.5940E-06  0  0.4825E-06  0 -0.2544E-06  0 -0.2727E-06
   (  5,  6,  1)  (  5,  6,  1)  (  5,  6,  1)  (  3, 17, 17)  (  5,  6,  1)
  0 -0.1900E-06  0  0.1778E-06  0  0.1308E-06  0  0.1014E-06  0 -0.7299E-07
   (  3, 17, 17)  (  4, 18, 14)  (  4, 18, 14)  (  4, 18, 14)  (  3, 17, 17)
  0 -0.5408E-07  0 -0.4009E-07  0 -0.3764E-07  0 -0.2769E-07  0 -0.2178E-07
   (  3, 17, 17)  (  3, 17, 17)  (  3, 17, 17)  (  3, 17, 17)  (  3, 17, 17)
  0 -0.1656E-07  0 -0.1483E-07  0 -0.1153E-07  0 -0.8340E-08  0 -0.5721E-08
   (  3, 17, 17)  (  3, 17, 17)  (  3, 17, 17)  (  3, 17, 17)  (  3, 17, 17)
  1 -0.5346E-08
   (  3, 17, 17)



 OUTPUT CONTROL FOR STRESS PERIOD  100   TIME STEP    1
    SAVE HEAD FOR ALL LAYERS
    SAVE DRAWDOWN FOR ALL LAYERS
    SAVE BUDGET
    PRINT BUDGET
 UBDSV1 SAVING "         STORAGE" ON UNIT   9 AT TIME STEP  1, STRESS PERIOD 100
 UBDSV2 SAVING "   CONSTANT HEAD" ON UNIT   9 AT TIME STEP  1, STRESS PERIOD 100
 UBDSV1 SAVING "FLOW RIGHT FACE " ON UNIT   9 AT TIME STEP  1, STRESS PERIOD 100
 UBDSV1 SAVING "FLOW FRONT FACE " ON UNIT   9 AT TIME STEP  1, STRESS PERIOD 100
 UBDSV1 SAVING "FLOW LOWER FACE " ON UNIT   9 AT TIME STEP  1, STRESS PERIOD 100
 UBDSV3 SAVING "        RECHARGE" ON UNIT   9 AT TIME STEP  1, STRESS PERIOD 100

 HEAD WILL BE SAVED ON UNIT   37 AT END OF TIME STEP    1, STRESS PERIOD  100

 DRAWDOWN WILL BE SAVED ON UNIT   38 AT END OF TIME STEP    1, STRESS PERIOD  100
1
  VOLUMETRIC BUDGET FOR ENTIRE MODEL AT END OF TIME STEP    1, STRESS PERIOD 100
  ------------------------------------------------------------------------------

     CUMULATIVE VOLUMES      L**3       RATES FOR THIS TIME STEP      L**3/T
     ------------------                 ------------------------

           IN:                                      IN:
           ---                                      ---
             STORAGE =       13888.5889               STORAGE =           0.0000
       CONSTANT HEAD =       25081.1309         CONSTANT HEAD =       1.8352E-03
            RECHARGE =        1157.7953              RECHARGE =       9.7813E-05

            TOTAL IN =       40127.5156              TOTAL IN =       1.9330E-03

          OUT:                                     OUT:
          ----                                     ----
             STORAGE =       11009.1377               STORAGE =       1.8288E-03
       CONSTANT HEAD =       29119.4902         CONSTANT HEAD =       1.0424E-04
            RECHARGE =           0.0000              RECHARGE =           0.0000

           TOTAL OUT =       40128.6289             TOTAL OUT =       1.9331E-03

            IN - OUT =          -1.1133              IN - OUT =      -1.0838E-07

 PERCENT DISCREPANCY =          -0.00     PERCENT DISCREPANCY =          -0.01






         TIME SUMMARY AT END OF TIME STEP    1 IN STRESS PERIOD  100
                    SECONDS     MINUTES      HOURS       DAYS        YEARS
                    -----------------------------------------------------------
   TIME STEP LENGTH  86400.      1440.0      24.000      1.0000     2.73785E-03
 STRESS PERIOD TIME  86400.      1440.0      24.000      1.0000     2.73785E-03
         TOTAL TIME 1.18368E+07 1.97280E+05  3288.0      137.00     0.37509    
1
1
                            STRESS PERIOD NO.  101, LENGTH =   345600.0    
                            -----------------------------------------------

                              NUMBER OF TIME STEPS =     4

                               MULTIPLIER FOR DELT =     1.000

                            INITIAL TIME STEP SIZE =   86400.00    

 REUSING RECH FROM LAST STRESS PERIOD

 CHD NO.   LAYER   ROW   COL    START HEAD        END HEAD         IFACE           
 ----------------------------------------------------------------------------------
      1      4      1      1       110.0           110.3           0.000    
      2      5      1      1       110.0           110.3           0.000    
      3      4      1      2       110.0           110.3           0.000    
      4      5      1      2       110.0           110.3           0.000    
      5      4      1      3       110.0           110.3           0.000    
      6      5      1      3       110.0           110.3           0.000    
      7      4      1      4       110.0           110.3           0.000    
      8      5      1      4       110.0           110.3           0.000    
      9      4      1      5       110.0           110.3           0.000    
     10      5      1      5       110.0           110.3           0.000    
     11      4      1      6       110.0           110.3           0.000    
     12      5      1      6       110.0           110.3           0.000    
     13      4      1      7       110.0           110.3           0.000    
     14      5      1      7       110.0           110.3           0.000    
     15      4      1      8       110.0           110.3           0.000    
     16      5      1      8       110.0           110.3           0.000    
     17      4      1      9       110.0           110.3           0.000    
     18      5      1      9       110.0           110.3           0.000    
     19      4      1     10       110.0           110.3           0.000    
     20      5      1     10       110.0           110.3           0.000    
     21      4      1     11       110.0           110.3           0.000    
     22      5      1     11       110.0           110.3           0.000    
     23      4      1     12       110.0           110.3           0.000    
     24      5      1     12       110.0           110.3           0.000    
     25      4      1     13       110.0           110.3           0.000    
     26      5      1     13       110.0           110.3           0.000    
     27      4      1     14       110.0           110.3           0.000    
     28      5      1     14       110.0           110.3           0.000    
     29      4      1     15       110.0           110.3           0.000    
     30      5      1     15       110.0           110.3           0.000    
     31      4      1     16       110.0           110.3           0.000    
     32      5      1     16       110.0           110.3           0.000    
     33      4      1     17       110.0           110.3           0.000    
     34      5      1     17       110.0           110.3           0.000    
     35      4     17     17       110.0           110.1           0.000    
     36      5     17     17       110.0           110.1           0.000    
     37      4     18     17       110.0           110.1           0.000    
     38      5     18     17       110.0           110.1           0.000    
     39      4     18     16       110.0           110.1           0.000    
     40      5     18     16       110.0           110.1           0.000    
     41      4     19     16       110.0           110.1           0.000    
     42      5     19     16       110.0           110.1           0.000    
     43      4     19     15       110.0           110.1           0.000    
     44      5     19     15       110.0           110.1           0.000    
     45      4     20     15       110.0           110.1           0.000    
     46      5     20     15       110.0           110.1           0.000    
     47      4     20     14       110.0           110.1           0.000    
     48      5     20     14       110.0           110.1           0.000    
     49      4     20     13       110.0           110.1           0.000    
     50      5     20     13       110.0           110.1           0.000    
     51      4     20     12       110.0           110.1           0.000    
     52      5     20     12       110.0           110.1           0.000    
     53      4     20     11       110.0           110.1           0.000    
     54      5     20     11       110.0           110.1           0.000    
     55      4     21     11       110.0           110.1           0.000    
     56      5     21     11       110.0           110.1           0.000    
     57      4     21     10       110.0           110.1           0.000    
     58      5     21     10       110.0           110.1           0.000    
     59      4     21      9       110.0           110.1           0.000    
     60      5     21      9       110.0           110.1           0.000    
     61      4     21      8       110.0           110.1           0.000    
     62      5     21      8       110.0           110.1           0.000    
     63      4     21      7       109.9           110.1           0.000    
     64      5     21      7       109.9           110.1           0.000    
     65      4     21      6       109.9           110.1           0.000    
     66      5     21      6       109.9           110.1           0.000    
     67      4     21      5       109.9           110.1           0.000    
     68      5     21      5       109.9           110.1           0.000    
     69      4     22      5       109.9           110.1           0.000    
     70      5     22      5       109.9           110.1           0.000    
     71      4     22      4       109.9           110.1           0.000    
     72      5     22      4       109.9           110.1           0.000    
     73      4     22      3       109.9           110.1           0.000    
     74      5     22      3       109.9           110.1           0.000    
     75      4     22      2       109.9           110.1           0.000    
     76      5     22      2       109.9           110.1           0.000    
     77      4     22      1       109.9           110.1           0.000    
     78      5     22      1       109.9           110.1           0.000    


     78 TIME-VARIANT SPECIFIED-HEAD CELLS

 SOLVING FOR HEAD 


     3 CALLS TO PCG ROUTINE FOR TIME STEP   1 IN STRESS PERIOD  101
    51 TOTAL ITERATIONS

 MAXIMUM HEAD CHANGE FOR EACH ITERATION (1 INDICATES THE FIRST INNER ITERATION):

    HEAD CHANGE    HEAD CHANGE    HEAD CHANGE    HEAD CHANGE    HEAD CHANGE 
   LAYER,ROW,COL  LAYER,ROW,COL  LAYER,ROW,COL  LAYER,ROW,COL  LAYER,ROW,COL
 ---------------------------------------------------------------------------
  1  0.1151      0 -0.7572E-01  0  0.6686E-01  0  0.5151E-01  0  0.6672E-01
   (  5, 21,  2)  (  5, 17,  1)  (  5, 16,  2)  (  5, 17,  1)  (  5, 19,  1)
  0  0.4050E-01  0 -0.3410E-01  0 -0.2404E-01  0  0.2180E-01  0 -0.1230E-01
   (  5, 20,  1)  (  5, 18,  1)  (  5, 19,  1)  (  5, 18,  1)  (  5, 18,  4)
  0  0.9996E-02  0 -0.6280E-02  0 -0.4195E-02  0  0.4163E-02  0 -0.2639E-02
   (  5, 17,  3)  (  5, 16,  3)  (  5, 17,  2)  (  5, 16,  1)  (  5, 19,  1)
  0  0.2501E-02  0 -0.2641E-02  0 -0.1338E-02  0 -0.1813E-02  0  0.6635E-03
   (  5, 18,  1)  (  5, 18,  2)  (  5, 16,  1)  (  5, 19,  3)  (  5, 18,  2)
  0 -0.5034E-03  0  0.4780E-03  0 -0.3309E-03  0  0.3188E-03  0  0.1963E-03
   (  5, 20,  2)  (  5, 17,  1)  (  5, 15,  1)  (  5, 15,  2)  (  5, 18,  5)
  0  0.1407E-03  0  0.1258E-03  0  0.8121E-04  0  0.7508E-04  0  0.4579E-04
   (  5, 20,  3)  (  5, 14,  2)  (  5, 18,  1)  (  5,  6,  1)  (  5, 17,  1)
  1 -0.6814E-04  0  0.1640E-03  0 -0.1201E-03  0  0.7048E-04  0  0.7486E-04
   (  5, 16,  1)  (  5,  6,  1)  (  5, 20,  1)  (  5, 14,  3)  (  5, 19,  1)
  0 -0.6475E-04  0 -0.3349E-04  0 -0.2683E-04  0  0.1792E-04  0 -0.1272E-04
   (  5, 18,  1)  (  5, 16,  3)  (  5, 12,  6)  (  5, 16,  3)  (  5, 13,  4)
  0 -0.9248E-05  0  0.8126E-05  0 -0.6806E-05  0  0.5916E-05  0 -0.4256E-05
   (  5, 15,  1)  (  5, 17,  2)  (  5, 18,  2)  (  5, 19,  3)  (  5, 19,  4)
  0  0.3536E-05  0  0.2234E-05  0 -0.1874E-05  0 -0.1173E-05  0  0.9640E-06
   (  5, 20,  1)  (  5, 18,  2)  (  5, 20,  1)  (  5, 18,  3)  (  5, 16,  1)
  1 -0.8843E-06
   (  5, 16,  1)

 MAXIMUM RESIDUAL FOR EACH ITERATION (1 INDICATES THE FIRST INNER ITERATION):

    RESIDUAL       RESIDUAL       RESIDUAL       RESIDUAL       RESIDUAL    
   LAYER,ROW,COL  LAYER,ROW,COL  LAYER,ROW,COL  LAYER,ROW,COL  LAYER,ROW,COL
 ---------------------------------------------------------------------------
  1 -0.2543E-02  0 -0.2244E-02  0 -0.1974E-02  0 -0.1637E-02  0 -0.1272E-02
   (  3, 17, 17)  (  3, 17, 17)  (  3, 17, 17)  (  3, 17, 17)  (  3, 17, 17)
  0 -0.9258E-03  0 -0.5979E-03  0 -0.3430E-03  0 -0.1891E-03  0  0.1256E-03
   (  3, 17, 17)  (  3, 17, 17)  (  3, 17, 17)  (  3, 20, 11)  (  4, 21,  2)
  0  0.1103E-03  0 -0.8480E-04  0 -0.7447E-04  0 -0.6422E-04  0 -0.4940E-04
   (  4, 21,  2)  (  4, 16, 17)  (  4, 16, 17)  (  4, 16, 17)  (  4, 16, 17)
  0 -0.4101E-04  0 -0.3215E-04  0 -0.2269E-04  0  0.1590E-04  0  0.1211E-04
   (  4, 16, 17)  (  4, 16, 17)  (  4, 16, 17)  (  3, 21,  6)  (  3, 21,  6)
  0  0.1002E-04  0  0.8563E-05  0  0.7971E-05  0  0.5849E-05  0  0.3775E-05
   (  3, 21,  6)  (  3, 21,  6)  (  3, 21,  6)  (  3, 21,  6)  (  3, 21,  6)
  0  0.2303E-05  0  0.1388E-05  0  0.1093E-05  0 -0.4942E-06  0 -0.3935E-06
   (  3, 21,  6)  (  3, 21,  6)  (  3, 21,  6)  (  5, 15, 17)  (  5, 15, 17)
  1  0.6462E-06  0  0.6982E-06  0 -0.3448E-06  0  0.2450E-06  0 -0.3146E-06
   (  2,  2,  6)  (  5,  6,  1)  (  4, 14,  2)  (  5, 13,  3)  (  5,  6,  1)
  0  0.1967E-06  0  0.1826E-06  0  0.1335E-06  0  0.1003E-06  0  0.5825E-07
   (  4, 18, 14)  (  4, 18, 14)  (  4, 18, 14)  (  4, 18, 14)  (  4, 18, 14)
  0 -0.4810E-07  0 -0.3803E-07  0  0.2702E-07  0  0.2159E-07  0  0.2142E-07
   (  3, 17, 17)  (  3, 17, 17)  (  2,  2,  1)  (  2,  2,  1)  (  4, 21,  2)
  0 -0.1511E-07  0 -0.1357E-07  0 -0.1173E-07  0 -0.7647E-08  0 -0.6393E-08
   (  4, 18, 14)  (  4, 18, 14)  (  4, 18, 14)  (  4, 18, 14)  (  4, 20,  4)
  1 -0.5892E-08
   (  4, 20,  4)



 OUTPUT CONTROL FOR STRESS PERIOD  101   TIME STEP    1
    SAVE HEAD FOR ALL LAYERS
    SAVE DRAWDOWN FOR ALL LAYERS
    SAVE BUDGET
    PRINT BUDGET
 UBDSV1 SAVING "         STORAGE" ON UNIT   9 AT TIME STEP  1, STRESS PERIOD 101
 UBDSV2 SAVING "   CONSTANT HEAD" ON UNIT   9 AT TIME STEP  1, STRESS PERIOD 101
 UBDSV1 SAVING "FLOW RIGHT FACE " ON UNIT   9 AT TIME STEP  1, STRESS PERIOD 101
 UBDSV1 SAVING "FLOW FRONT FACE " ON UNIT   9 AT TIME STEP  1, STRESS PERIOD 101
 UBDSV1 SAVING "FLOW LOWER FACE " ON UNIT   9 AT TIME STEP  1, STRESS PERIOD 101
 UBDSV3 SAVING "        RECHARGE" ON UNIT   9 AT TIME STEP  1, STRESS PERIOD 101

 HEAD WILL BE SAVED ON UNIT   37 AT END OF TIME STEP    1, STRESS PERIOD  101

 DRAWDOWN WILL BE SAVED ON UNIT   38 AT END OF TIME STEP    1, STRESS PERIOD  101
1
  VOLUMETRIC BUDGET FOR ENTIRE MODEL AT END OF TIME STEP    1, STRESS PERIOD 101
  ------------------------------------------------------------------------------

     CUMULATIVE VOLUMES      L**3       RATES FOR THIS TIME STEP      L**3/T
     ------------------                 ------------------------

           IN:                                      IN:
           ---                                      ---
             STORAGE =       13888.5889               STORAGE =           0.0000
       CONSTANT HEAD =       25258.8340         CONSTANT HEAD =       2.0567E-03
            RECHARGE =        1166.2463              RECHARGE =       9.7813E-05

            TOTAL IN =       40313.6680              TOTAL IN =       2.1546E-03

          OUT:                                     OUT:
          ----                                     ----
             STORAGE =       11183.7168               STORAGE =       2.0206E-03
       CONSTANT HEAD =       29131.0723         CONSTANT HEAD =       1.3406E-04
            RECHARGE =           0.0000              RECHARGE =           0.0000

           TOTAL OUT =       40314.7891             TOTAL OUT =       2.1546E-03

            IN - OUT =          -1.1211              IN - OUT =      -9.1968E-08

 PERCENT DISCREPANCY =          -0.00     PERCENT DISCREPANCY =          -0.00






         TIME SUMMARY AT END OF TIME STEP    1 IN STRESS PERIOD  101
                    SECONDS     MINUTES      HOURS       DAYS        YEARS
                    -----------------------------------------------------------
   TIME STEP LENGTH  86400.      1440.0      24.000      1.0000     2.73785E-03
 STRESS PERIOD TIME  86400.      1440.0      24.000      1.0000     2.73785E-03
         TOTAL TIME 1.19232E+07 1.98720E+05  3312.0      138.00     0.37782    
1

 SOLVING FOR HEAD 
     3 CALLS TO PCG ROUTINE FOR TIME STEP   2 IN STRESS PERIOD  101
    52 TOTAL ITERATIONS

 MAXIMUM HEAD CHANGE FOR EACH ITERATION (1 INDICATES THE FIRST INNER ITERATION):

    HEAD CHANGE    HEAD CHANGE    HEAD CHANGE    HEAD CHANGE    HEAD CHANGE 
   LAYER,ROW,COL  LAYER,ROW,COL  LAYER,ROW,COL  LAYER,ROW,COL  LAYER,ROW,COL
 ---------------------------------------------------------------------------
  1  0.1164      0 -0.7654E-01  0  0.6767E-01  0  0.5207E-01  0  0.6683E-01
   (  5, 21,  2)  (  5, 17,  1)  (  5, 16,  2)  (  5, 17,  1)  (  5, 19,  1)
  0  0.4105E-01  0 -0.3434E-01  0 -0.2416E-01  0  0.2210E-01  0 -0.1233E-01
   (  5, 20,  1)  (  5, 18,  1)  (  5, 19,  1)  (  5, 18,  1)  (  5, 18,  4)
  0  0.9773E-02  0  0.6012E-02  0 -0.5085E-02  0  0.4563E-02  0  0.3081E-02
   (  5, 17,  3)  (  5, 14,  1)  (  5, 16,  2)  (  5, 12,  5)  (  5, 19,  3)
  0 -0.3009E-02  0  0.2045E-02  0 -0.1534E-02  0 -0.1807E-02  0 -0.6648E-03
   (  5, 18,  2)  (  5, 18,  1)  (  5, 16,  1)  (  5, 19,  3)  (  5, 17,  2)
  0  0.6772E-03  0 -0.4890E-03  0  0.3793E-03  0 -0.2953E-03  0  0.1974E-03
   (  5, 16,  1)  (  5, 15,  1)  (  5, 19,  2)  (  5, 20,  1)  (  5, 18,  5)
  0  0.1393E-03  0  0.1072E-03  0  0.5965E-04  0 -0.8079E-04  0  0.5026E-04
   (  5, 20,  3)  (  5, 14,  2)  (  5, 19,  1)  (  5, 18,  1)  (  5, 17,  1)
  1 -0.7179E-04  0  0.1600E-03  0 -0.1556E-03  0  0.1072E-03  0 -0.7703E-04
   (  5, 16,  1)  (  5, 20,  1)  (  5, 20,  1)  (  5, 19,  2)  (  5, 18,  3)
  0 -0.6020E-04  0  0.3784E-04  0 -0.3762E-04  0 -0.1836E-04  0  0.1522E-04
   (  5, 13,  3)  (  5, 13,  4)  (  5, 11,  4)  (  5, 14,  4)  (  5, 15,  4)
  0  0.1009E-04  0 -0.6698E-05  0  0.7601E-05  0 -0.5112E-05  0 -0.4357E-05
   (  5, 17,  1)  (  5, 16,  3)  (  5, 20,  1)  (  5, 14,  4)  (  5, 19,  4)
  0  0.3820E-05  0 -0.2034E-05  0 -0.2376E-05  0 -0.1522E-05  0  0.1152E-05
   (  5, 20,  1)  (  5, 13,  2)  (  5, 17,  1)  (  5, 18,  3)  (  5, 19,  3)
  0 -0.7465E-06  1  0.7396E-06
   (  5, 17,  2)  (  5, 16,  1)

 MAXIMUM RESIDUAL FOR EACH ITERATION (1 INDICATES THE FIRST INNER ITERATION):

    RESIDUAL       RESIDUAL       RESIDUAL       RESIDUAL       RESIDUAL    
   LAYER,ROW,COL  LAYER,ROW,COL  LAYER,ROW,COL  LAYER,ROW,COL  LAYER,ROW,COL
 ---------------------------------------------------------------------------
  1 -0.2540E-02  0 -0.2238E-02  0 -0.1966E-02  0 -0.1629E-02  0 -0.1266E-02
   (  3, 17, 17)  (  3, 17, 17)  (  3, 17, 17)  (  3, 17, 17)  (  3, 17, 17)
  0 -0.9224E-03  0 -0.5962E-03  0 -0.3409E-03  0 -0.1860E-03  0  0.1258E-03
   (  3, 17, 17)  (  3, 17, 17)  (  3, 17, 17)  (  3, 20, 11)  (  4, 21,  2)
  0  0.1107E-03  0 -0.8757E-04  0 -0.8143E-04  0 -0.6370E-04  0 -0.4887E-04
   (  4, 21,  2)  (  4, 16, 17)  (  4, 16, 17)  (  4, 16, 17)  (  4, 16, 17)
  0 -0.3866E-04  0 -0.3184E-04  0 -0.2259E-04  0  0.1597E-04  0  0.1214E-04
   (  4, 16, 17)  (  4, 16, 17)  (  4, 16, 17)  (  3, 21,  6)  (  3, 21,  6)
  0  0.1023E-04  0  0.9013E-05  0  0.7912E-05  0  0.5856E-05  0  0.3778E-05
   (  3, 21,  6)  (  3, 21,  6)  (  3, 21,  6)  (  3, 21,  6)  (  3, 21,  6)
  0  0.2299E-05  0  0.1214E-05  0  0.1034E-05  0 -0.4966E-06  0 -0.4185E-06
   (  3, 21,  6)  (  3, 21,  6)  (  3, 21,  6)  (  5, 15, 17)  (  5, 15, 17)
  1  0.7414E-06  0  0.4321E-06  0  0.3090E-06  0 -0.3064E-06  0  0.2247E-06
   (  2,  2,  7)  (  2,  2,  7)  (  2,  2,  6)  (  5, 14,  2)  (  4, 18, 14)
  0  0.2204E-06  0  0.1986E-06  0  0.1525E-06  0  0.1082E-06  0  0.6461E-07
   (  4, 18, 14)  (  4, 18, 14)  (  4, 18, 14)  (  4, 18, 14)  (  4, 18, 14)
  0  0.4492E-07  0 -0.3794E-07  0  0.3014E-07  0  0.2445E-07  0  0.2392E-07
   (  4, 17, 15)  (  3, 17, 17)  (  2,  2,  1)  (  2,  2,  1)  (  4, 21,  2)
  0  0.1711E-07  0 -0.1478E-07  0 -0.1245E-07  0 -0.8142E-08  0 -0.6875E-08
   (  4, 21,  2)  (  4, 18, 14)  (  4, 18, 14)  (  4, 18, 14)  (  4, 20,  4)
  0 -0.6409E-08  1 -0.6123E-08
   (  4, 20,  4)  (  4, 20,  4)



 OUTPUT CONTROL FOR STRESS PERIOD  101   TIME STEP    2
    SAVE HEAD FOR ALL LAYERS
    SAVE DRAWDOWN FOR ALL LAYERS
    SAVE BUDGET
    PRINT BUDGET
 UBDSV1 SAVING "         STORAGE" ON UNIT   9 AT TIME STEP  2, STRESS PERIOD 101
 UBDSV2 SAVING "   CONSTANT HEAD" ON UNIT   9 AT TIME STEP  2, STRESS PERIOD 101
 UBDSV1 SAVING "FLOW RIGHT FACE " ON UNIT   9 AT TIME STEP  2, STRESS PERIOD 101
 UBDSV1 SAVING "FLOW FRONT FACE " ON UNIT   9 AT TIME STEP  2, STRESS PERIOD 101
 UBDSV1 SAVING "FLOW LOWER FACE " ON UNIT   9 AT TIME STEP  2, STRESS PERIOD 101
 UBDSV3 SAVING "        RECHARGE" ON UNIT   9 AT TIME STEP  2, STRESS PERIOD 101

 HEAD WILL BE SAVED ON UNIT   37 AT END OF TIME STEP    2, STRESS PERIOD  101

 DRAWDOWN WILL BE SAVED ON UNIT   38 AT END OF TIME STEP    2, STRESS PERIOD  101
1
  VOLUMETRIC BUDGET FOR ENTIRE MODEL AT END OF TIME STEP    2, STRESS PERIOD 101
  ------------------------------------------------------------------------------

     CUMULATIVE VOLUMES      L**3       RATES FOR THIS TIME STEP      L**3/T
     ------------------                 ------------------------

           IN:                                      IN:
           ---                                      ---
             STORAGE =       13888.5889               STORAGE =           0.0000
       CONSTANT HEAD =       25445.7754         CONSTANT HEAD =       2.1637E-03
            RECHARGE =        1174.6974              RECHARGE =       9.7813E-05

            TOTAL IN =       40509.0625              TOTAL IN =       2.2615E-03

          OUT:                                     OUT:
          ----                                     ----
             STORAGE =       11363.5557               STORAGE =       2.0815E-03
       CONSTANT HEAD =       29146.6328         CONSTANT HEAD =       1.8010E-04
            RECHARGE =           0.0000              RECHARGE =           0.0000

           TOTAL OUT =       40510.1875             TOTAL OUT =       2.2616E-03

            IN - OUT =          -1.1250              IN - OUT =      -9.1270E-08

 PERCENT DISCREPANCY =          -0.00     PERCENT DISCREPANCY =          -0.00






         TIME SUMMARY AT END OF TIME STEP    2 IN STRESS PERIOD  101
                    SECONDS     MINUTES      HOURS       DAYS        YEARS
                    -----------------------------------------------------------
   TIME STEP LENGTH  86400.      1440.0      24.000      1.0000     2.73785E-03
 STRESS PERIOD TIME 1.72800E+05  2880.0      48.000      2.0000     5.47570E-03
         TOTAL TIME 1.20096E+07 2.00160E+05  3336.0      139.00     0.38056    
1

 SOLVING FOR HEAD 
     3 CALLS TO PCG ROUTINE FOR TIME STEP   3 IN STRESS PERIOD  101
    52 TOTAL ITERATIONS

 MAXIMUM HEAD CHANGE FOR EACH ITERATION (1 INDICATES THE FIRST INNER ITERATION):

    HEAD CHANGE    HEAD CHANGE    HEAD CHANGE    HEAD CHANGE    HEAD CHANGE 
   LAYER,ROW,COL  LAYER,ROW,COL  LAYER,ROW,COL  LAYER,ROW,COL  LAYER,ROW,COL
 ---------------------------------------------------------------------------
  1  0.1168      0 -0.7676E-01  0  0.6788E-01  0  0.5223E-01  0  0.6682E-01
   (  5, 21,  2)  (  5, 17,  1)  (  5, 16,  2)  (  5, 17,  1)  (  5, 19,  1)
  0  0.4122E-01  0 -0.3444E-01  0 -0.2419E-01  0  0.2223E-01  0 -0.1242E-01
   (  5, 20,  1)  (  5, 18,  1)  (  5, 19,  1)  (  5, 18,  1)  (  5, 18,  4)
  0  0.1062E-01  0 -0.8382E-02  0  0.5746E-02  0  0.4612E-02  0  0.2959E-02
   (  5, 17,  3)  (  5, 16,  3)  (  5, 15,  1)  (  5, 12,  5)  (  5, 19,  3)
  0 -0.2777E-02  0  0.1378E-02  0 -0.1534E-02  0 -0.1713E-02  0  0.6404E-03
   (  5, 18,  3)  (  5, 19,  1)  (  5, 17,  1)  (  5, 19,  3)  (  5, 18,  3)
  0  0.5854E-03  0 -0.3851E-03  0  0.4380E-03  0  0.3406E-03  0  0.2060E-03
   (  5, 20,  1)  (  5, 18,  2)  (  5, 16,  2)  (  5, 19,  2)  (  5, 18,  5)
  0  0.1390E-03  0  0.9249E-04  0  0.8903E-04  0 -0.5643E-04  0 -0.4209E-04
   (  5, 20,  3)  (  5, 14,  2)  (  5, 19,  2)  (  5, 18,  1)  (  5,  6,  1)
  1  0.7700E-04  0  0.1953E-03  0 -0.1209E-03  0 -0.9387E-04  0  0.7098E-04
   (  5, 15,  1)  (  5,  6,  1)  (  5, 19,  1)  (  5,  6,  1)  (  5, 12,  4)
  0 -0.6866E-04  0 -0.4071E-04  0  0.2670E-04  0  0.2701E-04  0 -0.1301E-04
   (  5, 13,  3)  (  5, 12,  5)  (  5, 18,  3)  (  5, 20,  1)  (  5, 21,  1)
  0  0.7861E-05  0 -0.6334E-05  0  0.5904E-05  0 -0.5144E-05  0 -0.4034E-05
   (  5, 16,  1)  (  5, 16,  1)  (  5, 19,  3)  (  5, 20,  1)  (  5, 19,  2)
  0  0.3928E-05  0 -0.2631E-05  0 -0.1790E-05  0  0.1484E-05  0  0.1024E-05
   (  5, 18,  4)  (  5, 17,  1)  (  5, 15,  3)  (  5, 16,  3)  (  5, 14,  6)
  0 -0.6868E-06  1  0.4653E-06
   (  5, 17,  3)  (  5, 16,  2)

 MAXIMUM RESIDUAL FOR EACH ITERATION (1 INDICATES THE FIRST INNER ITERATION):

    RESIDUAL       RESIDUAL       RESIDUAL       RESIDUAL       RESIDUAL    
   LAYER,ROW,COL  LAYER,ROW,COL  LAYER,ROW,COL  LAYER,ROW,COL  LAYER,ROW,COL
 ---------------------------------------------------------------------------
  1 -0.2539E-02  0 -0.2237E-02  0 -0.1965E-02  0 -0.1628E-02  0 -0.1266E-02
   (  3, 17, 17)  (  3, 17, 17)  (  3, 17, 17)  (  3, 17, 17)  (  3, 17, 17)
  0 -0.9227E-03  0 -0.5966E-03  0 -0.3407E-03  0 -0.1852E-03  0  0.1259E-03
   (  3, 17, 17)  (  3, 17, 17)  (  3, 17, 17)  (  3, 20, 11)  (  4, 21,  2)
  0  0.1103E-03  0  0.9235E-04  0 -0.8136E-04  0 -0.6360E-04  0 -0.4872E-04
   (  4, 21,  2)  (  4, 21,  2)  (  4, 16, 17)  (  4, 16, 17)  (  4, 16, 17)
  0 -0.3410E-04  0 -0.2868E-04  0 -0.2256E-04  0  0.1602E-04  0  0.1218E-04
   (  4, 16, 17)  (  4, 16, 17)  (  4, 16, 17)  (  3, 21,  6)  (  3, 21,  6)
  0  0.1024E-04  0  0.8934E-05  0  0.8053E-05  0  0.5868E-05  0  0.3784E-05
   (  3, 21,  6)  (  3, 21,  6)  (  3, 21,  6)  (  3, 21,  6)  (  3, 21,  6)
  0  0.2302E-05  0  0.1190E-05  0  0.6272E-06  0 -0.4947E-06  0 -0.3905E-06
   (  3, 21,  6)  (  3, 21,  6)  (  3, 21,  6)  (  5, 15, 17)  (  5, 15, 17)
  1  0.8045E-06  0  0.8313E-06  0  0.4264E-06  0 -0.2574E-06  0 -0.3225E-06
   (  2,  2,  7)  (  5,  6,  1)  (  5,  6,  1)  (  5,  6,  1)  (  5,  6,  1)
  0  0.2249E-06  0  0.1955E-06  0  0.1351E-06  0  0.1028E-06  0  0.5528E-07
   (  5, 16, 17)  (  5, 16, 17)  (  4, 18, 14)  (  4, 18, 14)  (  4, 17, 15)
  0  0.3769E-07  0  0.3597E-07  0  0.3033E-07  0  0.2362E-07  0  0.2313E-07
   (  2,  2,  1)  (  2,  2,  1)  (  2,  2,  1)  (  4, 21,  2)  (  4, 21,  2)
  0 -0.1572E-07  0 -0.1375E-07  0 -0.1210E-07  0 -0.7485E-08  0 -0.6427E-08
   (  4, 18, 14)  (  4, 18, 14)  (  4, 18, 14)  (  4, 18, 14)  (  4, 20,  4)
  0 -0.4757E-08  1 -0.4839E-08
   (  4, 20,  4)  (  4, 20,  4)



 OUTPUT CONTROL FOR STRESS PERIOD  101   TIME STEP    3
    SAVE HEAD FOR ALL LAYERS
    SAVE DRAWDOWN FOR ALL LAYERS
    SAVE BUDGET
    PRINT BUDGET
 UBDSV1 SAVING "         STORAGE" ON UNIT   9 AT TIME STEP  3, STRESS PERIOD 101
 UBDSV2 SAVING "   CONSTANT HEAD" ON UNIT   9 AT TIME STEP  3, STRESS PERIOD 101
 UBDSV1 SAVING "FLOW RIGHT FACE " ON UNIT   9 AT TIME STEP  3, STRESS PERIOD 101
 UBDSV1 SAVING "FLOW FRONT FACE " ON UNIT   9 AT TIME STEP  3, STRESS PERIOD 101
 UBDSV1 SAVING "FLOW LOWER FACE " ON UNIT   9 AT TIME STEP  3, STRESS PERIOD 101
 UBDSV3 SAVING "        RECHARGE" ON UNIT   9 AT TIME STEP  3, STRESS PERIOD 101

 HEAD WILL BE SAVED ON UNIT   37 AT END OF TIME STEP    3, STRESS PERIOD  101

 DRAWDOWN WILL BE SAVED ON UNIT   38 AT END OF TIME STEP    3, STRESS PERIOD  101
1
  VOLUMETRIC BUDGET FOR ENTIRE MODEL AT END OF TIME STEP    3, STRESS PERIOD 101
  ------------------------------------------------------------------------------

     CUMULATIVE VOLUMES      L**3       RATES FOR THIS TIME STEP      L**3/T
     ------------------                 ------------------------

           IN:                                      IN:
           ---                                      ---
             STORAGE =       13888.5889               STORAGE =           0.0000
       CONSTANT HEAD =       25640.2500         CONSTANT HEAD =       2.2509E-03
            RECHARGE =        1183.1484              RECHARGE =       9.7813E-05

            TOTAL IN =       40711.9883              TOTAL IN =       2.3487E-03

          OUT:                                     OUT:
          ----                                     ----
             STORAGE =       11545.1494               STORAGE =       2.1018E-03
       CONSTANT HEAD =       29167.9727         CONSTANT HEAD =       2.4699E-04
            RECHARGE =           0.0000              RECHARGE =           0.0000

           TOTAL OUT =       40713.1211             TOTAL OUT =       2.3488E-03

            IN - OUT =          -1.1328              IN - OUT =      -9.1037E-08

 PERCENT DISCREPANCY =          -0.00     PERCENT DISCREPANCY =          -0.00






         TIME SUMMARY AT END OF TIME STEP    3 IN STRESS PERIOD  101
                    SECONDS     MINUTES      HOURS       DAYS        YEARS
                    -----------------------------------------------------------
   TIME STEP LENGTH  86400.      1440.0      24.000      1.0000     2.73785E-03
 STRESS PERIOD TIME 2.59200E+05  4320.0      72.000      3.0000     8.21355E-03
         TOTAL TIME 1.20960E+07 2.01600E+05  3360.0      140.00     0.38330    
1

 SOLVING FOR HEAD 
     3 CALLS TO PCG ROUTINE FOR TIME STEP   4 IN STRESS PERIOD  101
    54 TOTAL ITERATIONS

 MAXIMUM HEAD CHANGE FOR EACH ITERATION (1 INDICATES THE FIRST INNER ITERATION):

    HEAD CHANGE    HEAD CHANGE    HEAD CHANGE    HEAD CHANGE    HEAD CHANGE 
   LAYER,ROW,COL  LAYER,ROW,COL  LAYER,ROW,COL  LAYER,ROW,COL  LAYER,ROW,COL
 ---------------------------------------------------------------------------
  1  0.1169      0 -0.7681E-01  0  0.6793E-01  0  0.5229E-01  0  0.6682E-01
   (  5, 21,  2)  (  5, 17,  1)  (  5, 16,  2)  (  5, 17,  1)  (  5, 19,  1)
  0  0.4126E-01  0 -0.3449E-01  0 -0.2420E-01  0  0.2226E-01  0 -0.1245E-01
   (  5, 20,  1)  (  5, 18,  1)  (  5, 19,  1)  (  5, 18,  1)  (  5, 18,  4)
  0  0.1088E-01  0 -0.7484E-02  0  0.6291E-02  0  0.4633E-02  0  0.2830E-02
   (  5, 17,  3)  (  5, 16,  3)  (  5, 15,  1)  (  5, 12,  5)  (  5, 19,  3)
  0  0.1998E-02  0 -0.1514E-02  0 -0.1259E-02  0 -0.1844E-02  0 -0.6419E-03
   (  5, 18,  1)  (  5, 18,  2)  (  5, 16,  3)  (  5, 19,  3)  (  5, 17,  2)
  0  0.4982E-03  0 -0.5569E-03  0  0.3664E-03  0  0.3614E-03  0  0.2065E-03
   (  5, 17,  1)  (  5, 17,  2)  (  5, 16,  2)  (  5, 19,  2)  (  5, 18,  5)
  0  0.1398E-03  0  0.1082E-03  0  0.5545E-04  0  0.7463E-04  0 -0.3989E-04
   (  5, 20,  3)  (  5, 14,  2)  (  5, 19,  2)  (  5, 15,  2)  (  5, 17,  2)
  1  0.1255E-03  0 -0.1213E-03  0 -0.1361E-03  0  0.1387E-03  0  0.7600E-04
   (  5, 17,  1)  (  5, 16,  1)  (  5, 19,  1)  (  5,  6,  1)  (  5, 12,  4)
  0 -0.7087E-04  0 -0.5512E-04  0  0.2932E-04  0  0.2385E-04  0 -0.2273E-04
   (  5, 13,  3)  (  5, 12,  5)  (  5, 15,  1)  (  5, 20,  2)  (  5, 20,  1)
  0  0.9870E-05  0 -0.9027E-05  0  0.9009E-05  0 -0.7394E-05  0  0.4578E-05
   (  5, 14,  4)  (  5, 15,  1)  (  5, 19,  3)  (  5, 17,  3)  (  5, 17,  5)
  0 -0.4071E-05  0  0.2302E-05  0  0.3311E-05  0 -0.1674E-05  0  0.1366E-05
   (  5, 18,  1)  (  5, 18,  1)  (  5, 15,  4)  (  5, 18,  3)  (  5, 19,  3)
  0 -0.1265E-05  0  0.1144E-05  0  0.7633E-06  1 -0.4412E-06
   (  5, 16,  2)  (  5, 17,  1)  (  5, 20,  1)  (  5, 20,  1)

 MAXIMUM RESIDUAL FOR EACH ITERATION (1 INDICATES THE FIRST INNER ITERATION):

    RESIDUAL       RESIDUAL       RESIDUAL       RESIDUAL       RESIDUAL    
   LAYER,ROW,COL  LAYER,ROW,COL  LAYER,ROW,COL  LAYER,ROW,COL  LAYER,ROW,COL
 ---------------------------------------------------------------------------
  1 -0.2539E-02  0 -0.2237E-02  0 -0.1965E-02  0 -0.1628E-02  0 -0.1267E-02
   (  3, 17, 17)  (  3, 17, 17)  (  3, 17, 17)  (  3, 17, 17)  (  3, 17, 17)
  0 -0.9232E-03  0 -0.5970E-03  0 -0.3409E-03  0 -0.1851E-03  0  0.1259E-03
   (  3, 17, 17)  (  3, 17, 17)  (  3, 17, 17)  (  3, 20, 11)  (  4, 21,  2)
  0  0.1102E-03  0  0.9804E-04  0 -0.8142E-04  0 -0.6365E-04  0 -0.4876E-04
   (  4, 21,  2)  (  4, 21,  2)  (  4, 16, 17)  (  4, 16, 17)  (  4, 16, 17)
  0 -0.3530E-04  0 -0.3143E-04  0 -0.2264E-04  0  0.1603E-04  0  0.1222E-04
   (  4, 16, 17)  (  4, 16, 17)  (  4, 16, 17)  (  3, 21,  6)  (  3, 21,  6)
  0  0.1128E-04  0  0.9486E-05  0  0.8085E-05  0  0.5874E-05  0  0.3789E-05
   (  3, 21,  6)  (  3, 21,  6)  (  3, 21,  6)  (  3, 21,  6)  (  3, 21,  6)
  0  0.2305E-05  0  0.1210E-05  0  0.1019E-05  0  0.5086E-06  0 -0.4820E-06
   (  3, 21,  6)  (  3, 21,  6)  (  3, 21,  6)  (  3, 21,  5)  (  5, 15, 17)
  1  0.8244E-06  0 -0.1140E-05  0 -0.6373E-06  0  0.3514E-06  0 -0.2626E-06
   (  2,  2,  7)  (  5,  6,  1)  (  5,  6,  1)  (  5,  6,  1)  (  4, 16, 17)
  0  0.2712E-06  0  0.2385E-06  0  0.1864E-06  0  0.1353E-06  0  0.8370E-07
   (  4, 18, 14)  (  4, 18, 14)  (  4, 18, 14)  (  4, 18, 14)  (  4, 18, 14)
  0  0.4969E-07  0  0.4179E-07  0  0.3404E-07  0  0.3040E-07  0  0.2832E-07
   (  4, 17, 15)  (  4, 21,  4)  (  2,  2,  1)  (  4, 21,  2)  (  4, 21,  2)
  0  0.2321E-07  0  0.1791E-07  0 -0.1431E-07  0 -0.9896E-08  0 -0.7581E-08
   (  4, 21,  2)  (  4, 21,  2)  (  4, 18, 14)  (  4, 18, 14)  (  4, 20,  4)
  0 -0.5837E-08  0 -0.5045E-08  0 -0.3446E-08  1 -0.3193E-08
   (  4, 20,  4)  (  4, 20,  4)  (  4, 20,  4)  (  4, 20,  4)



 OUTPUT CONTROL FOR STRESS PERIOD  101   TIME STEP    4
    SAVE HEAD FOR ALL LAYERS
    SAVE DRAWDOWN FOR ALL LAYERS
    SAVE BUDGET
    PRINT BUDGET
 UBDSV1 SAVING "         STORAGE" ON UNIT   9 AT TIME STEP  4, STRESS PERIOD 101
 UBDSV2 SAVING "   CONSTANT HEAD" ON UNIT   9 AT TIME STEP  4, STRESS PERIOD 101
 UBDSV1 SAVING "FLOW RIGHT FACE " ON UNIT   9 AT TIME STEP  4, STRESS PERIOD 101
 UBDSV1 SAVING "FLOW FRONT FACE " ON UNIT   9 AT TIME STEP  4, STRESS PERIOD 101
 UBDSV1 SAVING "FLOW LOWER FACE " ON UNIT   9 AT TIME STEP  4, STRESS PERIOD 101
 UBDSV3 SAVING "        RECHARGE" ON UNIT   9 AT TIME STEP  4, STRESS PERIOD 101

 HEAD WILL BE SAVED ON UNIT   37 AT END OF TIME STEP    4, STRESS PERIOD  101

 DRAWDOWN WILL BE SAVED ON UNIT   38 AT END OF TIME STEP    4, STRESS PERIOD  101
1
  VOLUMETRIC BUDGET FOR ENTIRE MODEL AT END OF TIME STEP    4, STRESS PERIOD 101
  ------------------------------------------------------------------------------

     CUMULATIVE VOLUMES      L**3       RATES FOR THIS TIME STEP      L**3/T
     ------------------                 ------------------------

           IN:                                      IN:
           ---                                      ---
             STORAGE =       13888.5889               STORAGE =           0.0000
       CONSTANT HEAD =       25843.9277         CONSTANT HEAD =       2.3574E-03
            RECHARGE =        1191.5995              RECHARGE =       9.7813E-05

            TOTAL IN =       40924.1133              TOTAL IN =       2.4552E-03

          OUT:                                     OUT:
          ----                                     ----
             STORAGE =       11727.3408               STORAGE =       2.1087E-03
       CONSTANT HEAD =       29197.9180         CONSTANT HEAD =       3.4659E-04
            RECHARGE =           0.0000              RECHARGE =           0.0000

           TOTAL OUT =       40925.2578             TOTAL OUT =       2.4553E-03

            IN - OUT =          -1.1445              IN - OUT =      -1.0128E-07

 PERCENT DISCREPANCY =          -0.00     PERCENT DISCREPANCY =          -0.00






         TIME SUMMARY AT END OF TIME STEP    4 IN STRESS PERIOD  101
                    SECONDS     MINUTES      HOURS       DAYS        YEARS
                    -----------------------------------------------------------
   TIME STEP LENGTH  86400.      1440.0      24.000      1.0000     2.73785E-03
 STRESS PERIOD TIME 3.45600E+05  5760.0      96.000      4.0000     1.09514E-02
         TOTAL TIME 1.21824E+07 2.03040E+05  3384.0      141.00     0.38604    
1
1
                            STRESS PERIOD NO.  102, LENGTH =   86400.00    
                            -----------------------------------------------

                              NUMBER OF TIME STEPS =     1

                               MULTIPLIER FOR DELT =     1.000

                            INITIAL TIME STEP SIZE =   86400.00    

 REUSING RECH FROM LAST STRESS PERIOD

 CHD NO.   LAYER   ROW   COL    START HEAD        END HEAD         IFACE           
 ----------------------------------------------------------------------------------
      1      4      1      1       110.3           110.2           0.000    
      2      5      1      1       110.3           110.2           0.000    
      3      4      1      2       110.3           110.2           0.000    
      4      5      1      2       110.3           110.2           0.000    
      5      4      1      3       110.3           110.2           0.000    
      6      5      1      3       110.3           110.2           0.000    
      7      4      1      4       110.3           110.2           0.000    
      8      5      1      4       110.3           110.2           0.000    
      9      4      1      5       110.3           110.2           0.000    
     10      5      1      5       110.3           110.2           0.000    
     11      4      1      6       110.3           110.2           0.000    
     12      5      1      6       110.3           110.2           0.000    
     13      4      1      7       110.3           110.2           0.000    
     14      5      1      7       110.3           110.2           0.000    
     15      4      1      8       110.3           110.2           0.000    
     16      5      1      8       110.3           110.2           0.000    
     17      4      1      9       110.3           110.2           0.000    
     18      5      1      9       110.3           110.2           0.000    
     19      4      1     10       110.3           110.2           0.000    
     20      5      1     10       110.3           110.2           0.000    
     21      4      1     11       110.3           110.2           0.000    
     22      5      1     11       110.3           110.2           0.000    
     23      4      1     12       110.3           110.2           0.000    
     24      5      1     12       110.3           110.2           0.000    
     25      4      1     13       110.3           110.2           0.000    
     26      5      1     13       110.3           110.2           0.000    
     27      4      1     14       110.3           110.2           0.000    
     28      5      1     14       110.3           110.2           0.000    
     29      4      1     15       110.3           110.2           0.000    
     30      5      1     15       110.3           110.2           0.000    
     31      4      1     16       110.3           110.2           0.000    
     32      5      1     16       110.3           110.2           0.000    
     33      4      1     17       110.3           110.2           0.000    
     34      5      1     17       110.3           110.2           0.000    
     35      4     17     17       110.1           110.2           0.000    
     36      5     17     17       110.1           110.2           0.000    
     37      4     18     17       110.1           110.2           0.000    
     38      5     18     17       110.1           110.2           0.000    
     39      4     18     16       110.1           110.2           0.000    
     40      5     18     16       110.1           110.2           0.000    
     41      4     19     16       110.1           110.2           0.000    
     42      5     19     16       110.1           110.2           0.000    
     43      4     19     15       110.1           110.2           0.000    
     44      5     19     15       110.1           110.2           0.000    
     45      4     20     15       110.1           110.2           0.000    
     46      5     20     15       110.1           110.2           0.000    
     47      4     20     14       110.1           110.2           0.000    
     48      5     20     14       110.1           110.2           0.000    
     49      4     20     13       110.1           110.2           0.000    
     50      5     20     13       110.1           110.2           0.000    
     51      4     20     12       110.1           110.1           0.000    
     52      5     20     12       110.1           110.1           0.000    
     53      4     20     11       110.1           110.1           0.000    
     54      5     20     11       110.1           110.1           0.000    
     55      4     21     11       110.1           110.1           0.000    
     56      5     21     11       110.1           110.1           0.000    
     57      4     21     10       110.1           110.1           0.000    
     58      5     21     10       110.1           110.1           0.000    
     59      4     21      9       110.1           110.1           0.000    
     60      5     21      9       110.1           110.1           0.000    
     61      4     21      8       110.1           110.1           0.000    
     62      5     21      8       110.1           110.1           0.000    
     63      4     21      7       110.1           110.1           0.000    
     64      5     21      7       110.1           110.1           0.000    
     65      4     21      6       110.1           110.1           0.000    
     66      5     21      6       110.1           110.1           0.000    
     67      4     21      5       110.1           110.1           0.000    
     68      5     21      5       110.1           110.1           0.000    
     69      4     22      5       110.1           110.1           0.000    
     70      5     22      5       110.1           110.1           0.000    
     71      4     22      4       110.1           110.1           0.000    
     72      5     22      4       110.1           110.1           0.000    
     73      4     22      3       110.1           110.1           0.000    
     74      5     22      3       110.1           110.1           0.000    
     75      4     22      2       110.1           110.1           0.000    
     76      5     22      2       110.1           110.1           0.000    
     77      4     22      1       110.1           110.1           0.000    
     78      5     22      1       110.1           110.1           0.000    


     78 TIME-VARIANT SPECIFIED-HEAD CELLS

 SOLVING FOR HEAD 


     3 CALLS TO PCG ROUTINE FOR TIME STEP   1 IN STRESS PERIOD  102
    48 TOTAL ITERATIONS

 MAXIMUM HEAD CHANGE FOR EACH ITERATION (1 INDICATES THE FIRST INNER ITERATION):

    HEAD CHANGE    HEAD CHANGE    HEAD CHANGE    HEAD CHANGE    HEAD CHANGE 
   LAYER,ROW,COL  LAYER,ROW,COL  LAYER,ROW,COL  LAYER,ROW,COL  LAYER,ROW,COL
 ---------------------------------------------------------------------------
  1  0.9124E-01  0 -0.5919E-01  0 -0.4223E-01  0 -0.3337E-01  0  0.3164E-01
   (  5, 21,  2)  (  5, 18,  1)  (  5, 20,  1)  (  5, 21,  2)  (  5, 19,  1)
  0  0.2330E-01  0 -0.1973E-01  0 -0.1436E-01  0  0.1180E-01  0 -0.7039E-02
   (  5, 20,  1)  (  5, 19,  1)  (  5, 17,  3)  (  5, 18,  1)  (  5, 18,  4)
  0  0.5298E-02  0  0.3647E-02  0 -0.4967E-02  0  0.2646E-02  0 -0.2364E-02
   (  5, 17,  3)  (  5, 16,  1)  (  5, 16,  2)  (  5, 13,  6)  (  5, 11,  5)
  0  0.1708E-02  0 -0.2019E-02  0 -0.1131E-02  0 -0.1280E-02  0 -0.5977E-03
   (  5, 18,  1)  (  5, 18,  2)  (  5, 16,  1)  (  5, 19,  3)  (  5, 17,  2)
  0  0.4051E-03  0 -0.3469E-03  0  0.2560E-03  0 -0.2204E-03  0  0.1258E-03
   (  5, 16,  1)  (  5, 15,  1)  (  5, 19,  2)  (  5, 20,  1)  (  5, 18,  5)
  0  0.1018E-03  0 -0.6197E-04  0 -0.6765E-04  0 -0.4092E-04  0  0.2690E-04
   (  5, 20,  3)  (  5, 19,  2)  (  5, 15,  4)  (  5, 18,  1)  (  5, 18,  3)
  1 -0.2830E-04  0  0.3526E-04  0 -0.3655E-04  0 -0.2468E-04  0 -0.1832E-04
   (  5, 16,  1)  (  5, 20,  1)  (  5, 19,  1)  (  5, 13,  3)  (  5, 18,  1)
  0 -0.1798E-04  0 -0.1237E-04  0 -0.9853E-05  0  0.6270E-05  0 -0.4216E-05
   (  5, 16,  2)  (  5, 19,  1)  (  5, 18,  4)  (  5, 16,  5)  (  5, 17,  5)
  0  0.3651E-05  0 -0.2311E-05  0  0.2852E-05  0  0.1966E-05  0  0.1483E-05
   (  5, 15,  4)  (  5, 16,  1)  (  5, 17,  1)  (  5, 21,  1)  (  5, 19,  3)
  0  0.1052E-05  0 -0.7859E-06  1  0.4759E-06
   (  5, 16,  1)  (  5, 18,  1)  (  5, 18,  1)

 MAXIMUM RESIDUAL FOR EACH ITERATION (1 INDICATES THE FIRST INNER ITERATION):

    RESIDUAL       RESIDUAL       RESIDUAL       RESIDUAL       RESIDUAL    
   LAYER,ROW,COL  LAYER,ROW,COL  LAYER,ROW,COL  LAYER,ROW,COL  LAYER,ROW,COL
 ---------------------------------------------------------------------------
  1 -0.8328E-03  0 -0.7188E-03  0 -0.6398E-03  0 -0.5532E-03  0 -0.4500E-03
   (  3, 17, 17)  (  3, 17, 17)  (  3, 17, 17)  (  3, 17, 17)  (  3, 17, 17)
  0 -0.3266E-03  0 -0.2016E-03  0 -0.1201E-03  0 -0.7101E-04  0  0.4622E-04
   (  3, 17, 17)  (  3, 20, 11)  (  3, 20, 11)  (  3, 20, 11)  (  4, 21,  2)
  0  0.3908E-04  0  0.2841E-04  0  0.2427E-04  0 -0.1791E-04  0 -0.1520E-04
   (  4, 21,  2)  (  4, 21,  2)  (  4, 21,  2)  (  4, 16, 17)  (  4, 16, 17)
  0 -0.1367E-04  0 -0.1115E-04  0 -0.8299E-05  0  0.6384E-05  0  0.4845E-05
   (  4, 16, 17)  (  4, 17, 16)  (  4, 17, 16)  (  3, 21,  6)  (  3, 21,  6)
  0  0.3930E-05  0  0.3553E-05  0  0.3109E-05  0  0.2300E-05  0  0.1473E-05
   (  3, 21,  6)  (  3, 21,  6)  (  3, 21,  6)  (  3, 21,  6)  (  3, 20, 11)
  0  0.1018E-05  0  0.8971E-06  0  0.6177E-06  0  0.3599E-06  0  0.2811E-06
   (  3, 20, 11)  (  3, 20, 11)  (  3, 20, 11)  (  3, 20, 11)  (  3, 20, 11)
  1  0.2682E-06  0  0.2232E-06  0  0.1656E-06  0 -0.1299E-06  0 -0.1219E-06
   (  3, 20, 11)  (  3, 20, 11)  (  2,  2, 17)  (  4,  5, 17)  (  4,  5, 17)
  0 -0.1076E-06  0 -0.9514E-07  0 -0.7200E-07  0 -0.5704E-07  0 -0.4046E-07
   (  4, 20,  2)  (  4, 20,  2)  (  4, 20,  2)  (  4, 20,  2)  (  4, 20,  2)
  0 -0.3099E-07  0 -0.2648E-07  0 -0.1645E-07  0 -0.8776E-08  0  0.6448E-08
   (  4, 20,  2)  (  4, 20,  2)  (  4, 20,  2)  (  5,  3, 16)  (  2,  2,  1)
  0  0.5229E-08  0  0.4289E-08  1  0.4468E-08
   (  2,  2,  1)  (  2,  2,  1)  (  2,  2,  1)



 OUTPUT CONTROL FOR STRESS PERIOD  102   TIME STEP    1
    SAVE HEAD FOR ALL LAYERS
    SAVE DRAWDOWN FOR ALL LAYERS
    SAVE BUDGET
    PRINT BUDGET
 UBDSV1 SAVING "         STORAGE" ON UNIT   9 AT TIME STEP  1, STRESS PERIOD 102
 UBDSV2 SAVING "   CONSTANT HEAD" ON UNIT   9 AT TIME STEP  1, STRESS PERIOD 102
 UBDSV1 SAVING "FLOW RIGHT FACE " ON UNIT   9 AT TIME STEP  1, STRESS PERIOD 102
 UBDSV1 SAVING "FLOW FRONT FACE " ON UNIT   9 AT TIME STEP  1, STRESS PERIOD 102
 UBDSV1 SAVING "FLOW LOWER FACE " ON UNIT   9 AT TIME STEP  1, STRESS PERIOD 102
 UBDSV3 SAVING "        RECHARGE" ON UNIT   9 AT TIME STEP  1, STRESS PERIOD 102

 HEAD WILL BE SAVED ON UNIT   37 AT END OF TIME STEP    1, STRESS PERIOD  102

 DRAWDOWN WILL BE SAVED ON UNIT   38 AT END OF TIME STEP    1, STRESS PERIOD  102
1
  VOLUMETRIC BUDGET FOR ENTIRE MODEL AT END OF TIME STEP    1, STRESS PERIOD 102
  ------------------------------------------------------------------------------

     CUMULATIVE VOLUMES      L**3       RATES FOR THIS TIME STEP      L**3/T
     ------------------                 ------------------------

           IN:                                      IN:
           ---                                      ---
             STORAGE =       13926.9824               STORAGE =       4.4437E-04
       CONSTANT HEAD =       25856.0391         CONSTANT HEAD =       1.4018E-04
            RECHARGE =        1200.0505              RECHARGE =       9.7813E-05

            TOTAL IN =       40983.0742              TOTAL IN =       6.8236E-04

          OUT:                                     OUT:
          ----                                     ----
             STORAGE =       11751.5293               STORAGE =       2.7996E-04
       CONSTANT HEAD =       29232.6934         CONSTANT HEAD =       4.0249E-04
            RECHARGE =           0.0000              RECHARGE =           0.0000

           TOTAL OUT =       40984.2227             TOTAL OUT =       6.8245E-04

            IN - OUT =          -1.1484              IN - OUT =      -9.1735E-08

 PERCENT DISCREPANCY =          -0.00     PERCENT DISCREPANCY =          -0.01






         TIME SUMMARY AT END OF TIME STEP    1 IN STRESS PERIOD  102
                    SECONDS     MINUTES      HOURS       DAYS        YEARS
                    -----------------------------------------------------------
   TIME STEP LENGTH  86400.      1440.0      24.000      1.0000     2.73785E-03
 STRESS PERIOD TIME  86400.      1440.0      24.000      1.0000     2.73785E-03
         TOTAL TIME 1.22688E+07 2.04480E+05  3408.0      142.00     0.38877    
1
1
                            STRESS PERIOD NO.  103, LENGTH =   86400.00    
                            -----------------------------------------------

                              NUMBER OF TIME STEPS =     1

                               MULTIPLIER FOR DELT =     1.000

                            INITIAL TIME STEP SIZE =   86400.00    

 REUSING RECH FROM LAST STRESS PERIOD

 CHD NO.   LAYER   ROW   COL    START HEAD        END HEAD         IFACE           
 ----------------------------------------------------------------------------------
      1      4      1      1       110.2           110.3           0.000    
      2      5      1      1       110.2           110.3           0.000    
      3      4      1      2       110.2           110.3           0.000    
      4      5      1      2       110.2           110.3           0.000    
      5      4      1      3       110.2           110.3           0.000    
      6      5      1      3       110.2           110.3           0.000    
      7      4      1      4       110.2           110.3           0.000    
      8      5      1      4       110.2           110.3           0.000    
      9      4      1      5       110.2           110.3           0.000    
     10      5      1      5       110.2           110.3           0.000    
     11      4      1      6       110.2           110.3           0.000    
     12      5      1      6       110.2           110.3           0.000    
     13      4      1      7       110.2           110.3           0.000    
     14      5      1      7       110.2           110.3           0.000    
     15      4      1      8       110.2           110.3           0.000    
     16      5      1      8       110.2           110.3           0.000    
     17      4      1      9       110.2           110.3           0.000    
     18      5      1      9       110.2           110.3           0.000    
     19      4      1     10       110.2           110.3           0.000    
     20      5      1     10       110.2           110.3           0.000    
     21      4      1     11       110.2           110.3           0.000    
     22      5      1     11       110.2           110.3           0.000    
     23      4      1     12       110.2           110.3           0.000    
     24      5      1     12       110.2           110.3           0.000    
     25      4      1     13       110.2           110.3           0.000    
     26      5      1     13       110.2           110.3           0.000    
     27      4      1     14       110.2           110.3           0.000    
     28      5      1     14       110.2           110.3           0.000    
     29      4      1     15       110.2           110.3           0.000    
     30      5      1     15       110.2           110.3           0.000    
     31      4      1     16       110.2           110.3           0.000    
     32      5      1     16       110.2           110.3           0.000    
     33      4      1     17       110.2           110.3           0.000    
     34      5      1     17       110.2           110.3           0.000    
     35      4     17     17       110.2           110.3           0.000    
     36      5     17     17       110.2           110.3           0.000    
     37      4     18     17       110.2           110.3           0.000    
     38      5     18     17       110.2           110.3           0.000    
     39      4     18     16       110.2           110.3           0.000    
     40      5     18     16       110.2           110.3           0.000    
     41      4     19     16       110.2           110.3           0.000    
     42      5     19     16       110.2           110.3           0.000    
     43      4     19     15       110.2           110.3           0.000    
     44      5     19     15       110.2           110.3           0.000    
     45      4     20     15       110.2           110.3           0.000    
     46      5     20     15       110.2           110.3           0.000    
     47      4     20     14       110.2           110.3           0.000    
     48      5     20     14       110.2           110.3           0.000    
     49      4     20     13       110.2           110.3           0.000    
     50      5     20     13       110.2           110.3           0.000    
     51      4     20     12       110.1           110.3           0.000    
     52      5     20     12       110.1           110.3           0.000    
     53      4     20     11       110.1           110.3           0.000    
     54      5     20     11       110.1           110.3           0.000    
     55      4     21     11       110.1           110.3           0.000    
     56      5     21     11       110.1           110.3           0.000    
     57      4     21     10       110.1           110.3           0.000    
     58      5     21     10       110.1           110.3           0.000    
     59      4     21      9       110.1           110.3           0.000    
     60      5     21      9       110.1           110.3           0.000    
     61      4     21      8       110.1           110.3           0.000    
     62      5     21      8       110.1           110.3           0.000    
     63      4     21      7       110.1           110.3           0.000    
     64      5     21      7       110.1           110.3           0.000    
     65      4     21      6       110.1           110.3           0.000    
     66      5     21      6       110.1           110.3           0.000    
     67      4     21      5       110.1           110.3           0.000    
     68      5     21      5       110.1           110.3           0.000    
     69      4     22      5       110.1           110.3           0.000    
     70      5     22      5       110.1           110.3           0.000    
     71      4     22      4       110.1           110.3           0.000    
     72      5     22      4       110.1           110.3           0.000    
     73      4     22      3       110.1           110.3           0.000    
     74      5     22      3       110.1           110.3           0.000    
     75      4     22      2       110.1           110.3           0.000    
     76      5     22      2       110.1           110.3           0.000    
     77      4     22      1       110.1           110.3           0.000    
     78      5     22      1       110.1           110.3           0.000    


     78 TIME-VARIANT SPECIFIED-HEAD CELLS

 SOLVING FOR HEAD 


     4 CALLS TO PCG ROUTINE FOR TIME STEP   1 IN STRESS PERIOD  103
    62 TOTAL ITERATIONS

 MAXIMUM HEAD CHANGE FOR EACH ITERATION (1 INDICATES THE FIRST INNER ITERATION):

    HEAD CHANGE    HEAD CHANGE    HEAD CHANGE    HEAD CHANGE    HEAD CHANGE 
   LAYER,ROW,COL  LAYER,ROW,COL  LAYER,ROW,COL  LAYER,ROW,COL  LAYER,ROW,COL
 ---------------------------------------------------------------------------
  1  0.3528      0 -0.2337      0  0.2038      0  0.1601      0  0.2207    
   (  5, 21,  2)  (  5, 17,  1)  (  5, 16,  2)  (  5, 17,  1)  (  5, 19,  1)
  0  0.1291      0 -0.1135      0 -0.8368E-01  0  0.7412E-01  0 -0.4365E-01
   (  5, 20,  1)  (  5, 18,  1)  (  5, 19,  1)  (  5, 18,  1)  (  5, 18,  4)
  0  0.3886E-01  0 -0.2161E-01  0  0.2055E-01  0  0.1611E-01  0  0.1066E-01
   (  5, 17,  3)  (  5, 16,  2)  (  5, 14,  1)  (  5, 12,  5)  (  5, 19,  3)
  0 -0.1041E-01  0  0.6626E-02  0 -0.5500E-02  0 -0.6108E-02  0 -0.2718E-02
   (  5, 18,  2)  (  5, 18,  1)  (  5, 16,  1)  (  5, 19,  3)  (  5, 17,  2)
  0  0.1667E-02  0 -0.1764E-02  0 -0.1106E-02  0  0.8037E-03  0  0.7237E-03
   (  5, 16,  1)  (  5, 20,  3)  (  5, 20,  1)  (  5, 19,  1)  (  5, 18,  5)
  0  0.5133E-03  0  0.4069E-03  0  0.2055E-03  0  0.2418E-03  0 -0.1588E-03
   (  5, 20,  3)  (  5, 14,  2)  (  5, 19,  1)  (  5, 15,  2)  (  5, 15,  1)
  1  0.5359E-03  0 -0.4968E-03  0  0.5047E-03  0  0.4083E-03  0  0.3376E-03
   (  5, 17,  1)  (  5, 16,  1)  (  5, 13,  1)  (  5, 19,  2)  (  5, 17,  4)
  0  0.2011E-03  0 -0.1337E-03  0 -0.6496E-04  0 -0.7057E-04  0  0.3836E-04
   (  5, 19,  1)  (  5, 13,  3)  (  5,  7,  3)  (  5, 11,  4)  (  5, 12,  5)
  0 -0.3370E-04  0  0.2392E-04  0 -0.3178E-04  0  0.2399E-04  0 -0.1434E-04
   (  5, 16,  1)  (  5, 17,  1)  (  5, 16,  3)  (  5, 17,  5)  (  5, 14,  4)
  0 -0.9966E-05  0 -0.1041E-04  0 -0.8462E-05  0 -0.7637E-05  0  0.3095E-05
   (  2, 19,  4)  (  5, 19,  2)  (  5, 15,  3)  (  5, 20,  1)  (  5, 21,  1)
  0 -0.3701E-05  0  0.2645E-05  0  0.1521E-05  0  0.1491E-05  0 -0.8748E-06
   (  5, 16,  2)  (  5, 15,  1)  (  5, 16,  5)  (  5, 19,  1)  (  5, 20,  2)
  1  0.1671E-05  0 -0.2028E-05  0 -0.1905E-05  0  0.1624E-05  0 -0.1151E-05
   (  5, 18,  1)  (  5, 19,  1)  (  5, 16,  1)  (  5, 17,  2)  (  5, 19,  4)
  0  0.8068E-06  1  0.4155E-06
   (  5, 14,  3)  (  5, 18,  1)

 MAXIMUM RESIDUAL FOR EACH ITERATION (1 INDICATES THE FIRST INNER ITERATION):

    RESIDUAL       RESIDUAL       RESIDUAL       RESIDUAL       RESIDUAL    
   LAYER,ROW,COL  LAYER,ROW,COL  LAYER,ROW,COL  LAYER,ROW,COL  LAYER,ROW,COL
 ---------------------------------------------------------------------------
  1 -0.1023E-01  0 -0.9226E-02  0 -0.8303E-02  0 -0.7058E-02  0 -0.5619E-02
   (  3, 17, 17)  (  3, 17, 17)  (  3, 17, 17)  (  3, 17, 17)  (  3, 17, 17)
  0 -0.4207E-02  0 -0.2811E-02  0 -0.1699E-02  0 -0.1009E-02  0 -0.6382E-03
   (  3, 17, 17)  (  3, 17, 17)  (  3, 17, 17)  (  3, 20, 11)  (  3, 20, 11)
  0 -0.4360E-03  0 -0.4111E-03  0 -0.3440E-03  0 -0.2771E-03  0 -0.2167E-03
   (  4, 16, 17)  (  4, 16, 17)  (  4, 16, 17)  (  4, 16, 17)  (  4, 16, 17)
  0 -0.1737E-03  0 -0.1484E-03  0 -0.1090E-03  0 -0.7744E-04  0 -0.5349E-04
   (  4, 16, 17)  (  4, 16, 17)  (  4, 16, 17)  (  4, 16, 17)  (  4, 16, 17)
  0 -0.5003E-04  0 -0.3551E-04  0 -0.2436E-04  0 -0.2088E-04  0  0.1373E-04
   (  4, 16, 17)  (  4, 16, 17)  (  4, 16, 17)  (  4, 16, 17)  (  3, 21,  6)
  0  0.8514E-05  0  0.4876E-05  0  0.4205E-05  0  0.2303E-05  0  0.1953E-05
   (  3, 21,  6)  (  3, 21,  6)  (  3, 21,  6)  (  3, 21,  6)  (  3, 21,  6)
  1 -0.3695E-05  0 -0.4558E-05  0 -0.2586E-05  0 -0.2179E-05  0 -0.1862E-05
   (  3, 17, 17)  (  5,  6,  1)  (  3, 17, 17)  (  3, 17, 17)  (  3, 17, 17)
  0 -0.1512E-05  0 -0.1333E-05  0 -0.1034E-05  0 -0.8298E-06  0 -0.6874E-06
   (  3, 17, 17)  (  3, 17, 17)  (  3, 17, 17)  (  3, 17, 17)  (  3, 17, 17)
  0 -0.5664E-06  0 -0.5256E-06  0 -0.4273E-06  0 -0.3145E-06  0 -0.2351E-06
   (  3, 17, 17)  (  3, 17, 17)  (  3, 17, 17)  (  3, 17, 17)  (  3, 17, 17)
  0 -0.1739E-06  0 -0.1515E-06  0 -0.1109E-06  0 -0.7809E-07  0 -0.5777E-07
   (  3, 17, 17)  (  3, 17, 17)  (  3, 17, 17)  (  3, 17, 17)  (  3, 17, 17)
  0 -0.4871E-07  0 -0.4030E-07  0 -0.3011E-07  0 -0.2262E-07  0 -0.1966E-07
   (  3, 17, 17)  (  3, 17, 17)  (  3, 17, 17)  (  3, 17, 17)  (  3, 17, 17)
  1 -0.1758E-07  0 -0.1224E-07  0 -0.9499E-08  0  0.5481E-08  0  0.3725E-08
   (  3, 17, 17)  (  3, 17, 17)  (  3, 17, 17)  (  3, 18, 15)  (  3, 19, 14)
  0  0.2962E-08  1  0.2813E-08
   (  3, 19, 14)  (  3, 19, 14)



 OUTPUT CONTROL FOR STRESS PERIOD  103   TIME STEP    1
    SAVE HEAD FOR ALL LAYERS
    SAVE DRAWDOWN FOR ALL LAYERS
    SAVE BUDGET
    PRINT BUDGET
 UBDSV1 SAVING "         STORAGE" ON UNIT   9 AT TIME STEP  1, STRESS PERIOD 103
 UBDSV2 SAVING "   CONSTANT HEAD" ON UNIT   9 AT TIME STEP  1, STRESS PERIOD 103
 UBDSV1 SAVING "FLOW RIGHT FACE " ON UNIT   9 AT TIME STEP  1, STRESS PERIOD 103
 UBDSV1 SAVING "FLOW FRONT FACE " ON UNIT   9 AT TIME STEP  1, STRESS PERIOD 103
 UBDSV1 SAVING "FLOW LOWER FACE " ON UNIT   9 AT TIME STEP  1, STRESS PERIOD 103
 UBDSV3 SAVING "        RECHARGE" ON UNIT   9 AT TIME STEP  1, STRESS PERIOD 103

 HEAD WILL BE SAVED ON UNIT   37 AT END OF TIME STEP    1, STRESS PERIOD  103

 DRAWDOWN WILL BE SAVED ON UNIT   38 AT END OF TIME STEP    1, STRESS PERIOD  103
1
  VOLUMETRIC BUDGET FOR ENTIRE MODEL AT END OF TIME STEP    1, STRESS PERIOD 103
  ------------------------------------------------------------------------------

     CUMULATIVE VOLUMES      L**3       RATES FOR THIS TIME STEP      L**3/T
     ------------------                 ------------------------

           IN:                                      IN:
           ---                                      ---
             STORAGE =       13926.9824               STORAGE =           0.0000
       CONSTANT HEAD =       26173.4961         CONSTANT HEAD =       3.6743E-03
            RECHARGE =        1208.5016              RECHARGE =       9.7813E-05

            TOTAL IN =       41308.9766              TOTAL IN =       3.7721E-03

          OUT:                                     OUT:
          ----                                     ----
             STORAGE =       12077.4424               STORAGE =       3.7721E-03
       CONSTANT HEAD =       29232.6934         CONSTANT HEAD =           0.0000
            RECHARGE =           0.0000              RECHARGE =           0.0000

           TOTAL OUT =       41310.1367             TOTAL OUT =       3.7721E-03

            IN - OUT =          -1.1602              IN - OUT =      -6.6357E-08

 PERCENT DISCREPANCY =          -0.00     PERCENT DISCREPANCY =          -0.00






         TIME SUMMARY AT END OF TIME STEP    1 IN STRESS PERIOD  103
                    SECONDS     MINUTES      HOURS       DAYS        YEARS
                    -----------------------------------------------------------
   TIME STEP LENGTH  86400.      1440.0      24.000      1.0000     2.73785E-03
 STRESS PERIOD TIME  86400.      1440.0      24.000      1.0000     2.73785E-03
         TOTAL TIME 1.23552E+07 2.05920E+05  3432.0      143.00     0.39151    
1
1
                            STRESS PERIOD NO.  104, LENGTH =   86400.00    
                            -----------------------------------------------

                              NUMBER OF TIME STEPS =     1

                               MULTIPLIER FOR DELT =     1.000

                            INITIAL TIME STEP SIZE =   86400.00    

 REUSING RECH FROM LAST STRESS PERIOD

 CHD NO.   LAYER   ROW   COL    START HEAD        END HEAD         IFACE           
 ----------------------------------------------------------------------------------
      1      4      1      1       110.3           110.3           0.000    
      2      5      1      1       110.3           110.3           0.000    
      3      4      1      2       110.3           110.3           0.000    
      4      5      1      2       110.3           110.3           0.000    
      5      4      1      3       110.3           110.3           0.000    
      6      5      1      3       110.3           110.3           0.000    
      7      4      1      4       110.3           110.3           0.000    
      8      5      1      4       110.3           110.3           0.000    
      9      4      1      5       110.3           110.3           0.000    
     10      5      1      5       110.3           110.3           0.000    
     11      4      1      6       110.3           110.3           0.000    
     12      5      1      6       110.3           110.3           0.000    
     13      4      1      7       110.3           110.3           0.000    
     14      5      1      7       110.3           110.3           0.000    
     15      4      1      8       110.3           110.3           0.000    
     16      5      1      8       110.3           110.3           0.000    
     17      4      1      9       110.3           110.3           0.000    
     18      5      1      9       110.3           110.3           0.000    
     19      4      1     10       110.3           110.3           0.000    
     20      5      1     10       110.3           110.3           0.000    
     21      4      1     11       110.3           110.3           0.000    
     22      5      1     11       110.3           110.3           0.000    
     23      4      1     12       110.3           110.3           0.000    
     24      5      1     12       110.3           110.3           0.000    
     25      4      1     13       110.3           110.3           0.000    
     26      5      1     13       110.3           110.3           0.000    
     27      4      1     14       110.3           110.3           0.000    
     28      5      1     14       110.3           110.3           0.000    
     29      4      1     15       110.3           110.3           0.000    
     30      5      1     15       110.3           110.3           0.000    
     31      4      1     16       110.3           110.3           0.000    
     32      5      1     16       110.3           110.3           0.000    
     33      4      1     17       110.3           110.3           0.000    
     34      5      1     17       110.3           110.3           0.000    
     35      4     17     17       110.3           110.7           0.000    
     36      5     17     17       110.3           110.7           0.000    
     37      4     18     17       110.3           110.7           0.000    
     38      5     18     17       110.3           110.7           0.000    
     39      4     18     16       110.3           110.7           0.000    
     40      5     18     16       110.3           110.7           0.000    
     41      4     19     16       110.3           110.7           0.000    
     42      5     19     16       110.3           110.7           0.000    
     43      4     19     15       110.3           110.7           0.000    
     44      5     19     15       110.3           110.7           0.000    
     45      4     20     15       110.3           110.7           0.000    
     46      5     20     15       110.3           110.7           0.000    
     47      4     20     14       110.3           110.7           0.000    
     48      5     20     14       110.3           110.7           0.000    
     49      4     20     13       110.3           110.7           0.000    
     50      5     20     13       110.3           110.7           0.000    
     51      4     20     12       110.3           110.7           0.000    
     52      5     20     12       110.3           110.7           0.000    
     53      4     20     11       110.3           110.7           0.000    
     54      5     20     11       110.3           110.7           0.000    
     55      4     21     11       110.3           110.7           0.000    
     56      5     21     11       110.3           110.7           0.000    
     57      4     21     10       110.3           110.7           0.000    
     58      5     21     10       110.3           110.7           0.000    
     59      4     21      9       110.3           110.7           0.000    
     60      5     21      9       110.3           110.7           0.000    
     61      4     21      8       110.3           110.7           0.000    
     62      5     21      8       110.3           110.7           0.000    
     63      4     21      7       110.3           110.6           0.000    
     64      5     21      7       110.3           110.6           0.000    
     65      4     21      6       110.3           110.6           0.000    
     66      5     21      6       110.3           110.6           0.000    
     67      4     21      5       110.3           110.6           0.000    
     68      5     21      5       110.3           110.6           0.000    
     69      4     22      5       110.3           110.6           0.000    
     70      5     22      5       110.3           110.6           0.000    
     71      4     22      4       110.3           110.6           0.000    
     72      5     22      4       110.3           110.6           0.000    
     73      4     22      3       110.3           110.6           0.000    
     74      5     22      3       110.3           110.6           0.000    
     75      4     22      2       110.3           110.6           0.000    
     76      5     22      2       110.3           110.6           0.000    
     77      4     22      1       110.3           110.6           0.000    
     78      5     22      1       110.3           110.6           0.000    


     78 TIME-VARIANT SPECIFIED-HEAD CELLS

 SOLVING FOR HEAD 


     4 CALLS TO PCG ROUTINE FOR TIME STEP   1 IN STRESS PERIOD  104
    71 TOTAL ITERATIONS

 MAXIMUM HEAD CHANGE FOR EACH ITERATION (1 INDICATES THE FIRST INNER ITERATION):

    HEAD CHANGE    HEAD CHANGE    HEAD CHANGE    HEAD CHANGE    HEAD CHANGE 
   LAYER,ROW,COL  LAYER,ROW,COL  LAYER,ROW,COL  LAYER,ROW,COL  LAYER,ROW,COL
 ---------------------------------------------------------------------------
  1  0.7146      0 -0.4698      0  0.4122      0  0.3243      0  0.4398    
   (  5, 21,  2)  (  5, 17,  1)  (  5, 16,  2)  (  5, 17,  1)  (  5, 19,  1)
  0  0.2588      0 -0.2278      0 -0.1681      0  0.1518      0 -0.8904E-01
   (  5, 20,  1)  (  5, 18,  1)  (  5, 19,  1)  (  5, 18,  1)  (  5, 18,  4)
  0  0.7595E-01  0 -0.5489E-01  0  0.4371E-01  0  0.3207E-01  0  0.1986E-01
   (  5, 17,  3)  (  5, 16,  3)  (  5, 15,  1)  (  5, 12,  5)  (  5, 19,  3)
  0 -0.1377E-01  0 -0.1006E-01  0 -0.9171E-02  0 -0.1287E-01  0  0.4581E-02
   (  5, 18,  3)  (  5, 18,  2)  (  5, 16,  3)  (  5, 19,  3)  (  5, 18,  2)
  0 -0.4025E-02  0  0.4542E-02  0  0.2991E-02  0 -0.2277E-02  0  0.1354E-02
   (  5, 17,  2)  (  5, 16,  1)  (  5, 19,  2)  (  5, 19,  1)  (  5, 18,  1)
  0  0.9870E-03  0  0.6841E-03  0  0.5037E-03  0 -0.6260E-03  0  0.2924E-03
   (  5, 20,  3)  (  5, 14,  2)  (  5, 19,  2)  (  5, 18,  1)  (  5, 15,  2)
  1 -0.1725E-02  0  0.2769E-02  0 -0.2040E-02  0 -0.1075E-02  0 -0.9392E-03
   (  5, 15,  1)  (  5, 18,  3)  (  5, 18,  3)  (  5, 13,  2)  (  5, 19,  1)
  0  0.7135E-03  0 -0.5327E-03  0  0.2637E-03  0 -0.2246E-03  0  0.1310E-03
   (  5, 19,  1)  (  5, 13,  3)  (  5, 11,  4)  (  5, 12,  4)  (  5, 16,  1)
  0 -0.1276E-03  0  0.1366E-03  0 -0.1251E-03  0 -0.8716E-04  0  0.6513E-04
   (  5, 16,  1)  (  5, 16,  4)  (  5, 20,  1)  (  5, 19,  4)  (  5, 19,  3)
  0  0.4655E-04  0 -0.3257E-04  0  0.3012E-04  0 -0.1950E-04  0  0.1234E-04
   (  5, 18,  1)  (  5, 19,  2)  (  5, 17,  2)  (  5, 17,  1)  (  5, 15,  1)
  0 -0.1156E-04  0  0.7949E-05  0 -0.8207E-05  0  0.4331E-05  0  0.3528E-05
   (  5, 17,  2)  (  5, 13,  5)  (  5, 19,  1)  (  5, 20,  1)  (  5, 19,  4)
  0 -0.2957E-05  0 -0.2572E-05  0  0.1386E-05  0 -0.1124E-05  0 -0.1365E-05
   (  5, 17,  5)  (  5, 16,  2)  (  5, 16,  1)  (  5, 13,  2)  (  5, 18,  1)
  1  0.3474E-04  0  0.1204E-04  0 -0.1151E-04  0  0.8877E-05  0  0.5245E-05
   (  2, 19, 14)  (  5, 15,  2)  (  5, 18,  1)  (  5, 19,  2)  (  5, 12,  1)
  0 -0.2988E-05  0  0.3283E-05  0 -0.1592E-05  0  0.1220E-05  0  0.8459E-06
   (  5, 14,  4)  (  5, 15,  4)  (  5, 20,  1)  (  5, 11,  4)  (  5, 14,  3)
  1 -0.7251E-06
   (  5, 19,  4)

 MAXIMUM RESIDUAL FOR EACH ITERATION (1 INDICATES THE FIRST INNER ITERATION):

    RESIDUAL       RESIDUAL       RESIDUAL       RESIDUAL       RESIDUAL    
   LAYER,ROW,COL  LAYER,ROW,COL  LAYER,ROW,COL  LAYER,ROW,COL  LAYER,ROW,COL
 ---------------------------------------------------------------------------
  1 -0.2078E-01  0 -0.1878E-01  0 -0.1693E-01  0 -0.1446E-01  0 -0.1161E-01
   (  3, 17, 17)  (  3, 17, 17)  (  3, 17, 17)  (  3, 17, 17)  (  3, 17, 17)
  0 -0.8793E-02  0 -0.5957E-02  0 -0.3629E-02  0 -0.2149E-02  0 -0.1364E-02
   (  3, 17, 17)  (  3, 17, 17)  (  3, 17, 17)  (  3, 20, 11)  (  3, 20, 11)
  0 -0.8930E-03  0 -0.7889E-03  0 -0.6907E-03  0 -0.5589E-03  0 -0.4392E-03
   (  3, 20, 11)  (  4, 16, 17)  (  4, 16, 17)  (  4, 16, 17)  (  4, 16, 17)
  0 -0.3299E-03  0 -0.2997E-03  0 -0.2262E-03  0 -0.1626E-03  0 -0.1121E-03
   (  4, 16, 17)  (  4, 16, 17)  (  4, 16, 17)  (  4, 16, 17)  (  4, 16, 17)
  0 -0.9430E-04  0 -0.7531E-04  0 -0.5811E-04  0 -0.4555E-04  0 -0.2838E-04
   (  4, 16, 17)  (  4, 16, 17)  (  4, 16, 17)  (  4, 16, 17)  (  4, 16, 17)
  0  0.1732E-04  0  0.9496E-05  0  0.7673E-05  0  0.4347E-05  0 -0.3292E-05
   (  3, 21,  6)  (  3, 21,  6)  (  3, 21,  6)  (  3, 21,  6)  (  3, 17, 17)
  1  0.1616E-04  0 -0.9888E-05  0 -0.8686E-05  0 -0.7876E-05  0 -0.6975E-05
   (  2, 17, 17)  (  3, 17, 17)  (  3, 17, 17)  (  3, 17, 17)  (  3, 17, 17)
  0 -0.5999E-05  0 -0.4943E-05  0 -0.3937E-05  0 -0.3215E-05  0 -0.2629E-05
   (  3, 17, 17)  (  3, 17, 17)  (  3, 17, 17)  (  3, 17, 17)  (  3, 17, 17)
  0 -0.2437E-05  0 -0.2002E-05  0 -0.1428E-05  0  0.9921E-06  0  0.7150E-06
   (  3, 17, 17)  (  3, 17, 17)  (  3, 17, 17)  (  2, 17, 17)  (  2, 17, 17)
  0 -0.4960E-06  0 -0.4437E-06  0 -0.3414E-06  0 -0.2735E-06  0 -0.2601E-06
   (  3, 17, 17)  (  3, 17, 17)  (  3, 17, 17)  (  3, 17, 17)  (  3, 17, 17)
  0 -0.2004E-06  0 -0.1523E-06  0 -0.1154E-06  0 -0.1013E-06  0 -0.7456E-07
   (  3, 17, 17)  (  3, 17, 17)  (  3, 17, 17)  (  3, 17, 17)  (  3, 17, 17)
  0 -0.5232E-07  0 -0.3637E-07  0 -0.3302E-07  0 -0.2538E-07  0 -0.2032E-07
   (  3, 17, 17)  (  3, 17, 17)  (  3, 17, 17)  (  3, 17, 17)  (  3, 17, 17)
  1  0.5501E-07  0  0.5135E-07  0  0.4483E-07  0  0.3820E-07  0  0.3039E-07
   (  3, 19, 14)  (  3, 19, 14)  (  3, 19, 14)  (  3, 19, 14)  (  3, 19, 14)
  0  0.2385E-07  0  0.1783E-07  0  0.1205E-07  0  0.8590E-08  0 -0.6849E-08
   (  3, 19, 14)  (  3, 19, 14)  (  3, 19, 14)  (  3, 21,  4)  (  3, 18, 14)
  1 -0.6779E-08
   (  3, 18, 14)



 OUTPUT CONTROL FOR STRESS PERIOD  104   TIME STEP    1
    SAVE HEAD FOR ALL LAYERS
    SAVE DRAWDOWN FOR ALL LAYERS
    SAVE BUDGET
    PRINT BUDGET
 UBDSV1 SAVING "         STORAGE" ON UNIT   9 AT TIME STEP  1, STRESS PERIOD 104
 UBDSV2 SAVING "   CONSTANT HEAD" ON UNIT   9 AT TIME STEP  1, STRESS PERIOD 104
 UBDSV1 SAVING "FLOW RIGHT FACE " ON UNIT   9 AT TIME STEP  1, STRESS PERIOD 104
 UBDSV1 SAVING "FLOW FRONT FACE " ON UNIT   9 AT TIME STEP  1, STRESS PERIOD 104
 UBDSV1 SAVING "FLOW LOWER FACE " ON UNIT   9 AT TIME STEP  1, STRESS PERIOD 104
 UBDSV3 SAVING "        RECHARGE" ON UNIT   9 AT TIME STEP  1, STRESS PERIOD 104

 HEAD WILL BE SAVED ON UNIT   37 AT END OF TIME STEP    1, STRESS PERIOD  104

 DRAWDOWN WILL BE SAVED ON UNIT   38 AT END OF TIME STEP    1, STRESS PERIOD  104
1
  VOLUMETRIC BUDGET FOR ENTIRE MODEL AT END OF TIME STEP    1, STRESS PERIOD 104
  ------------------------------------------------------------------------------

     CUMULATIVE VOLUMES      L**3       RATES FOR THIS TIME STEP      L**3/T
     ------------------                 ------------------------

           IN:                                      IN:
           ---                                      ---
             STORAGE =       13926.9824               STORAGE =           0.0000
       CONSTANT HEAD =       26875.0449         CONSTANT HEAD =       8.1198E-03
            RECHARGE =        1216.9526              RECHARGE =       9.7813E-05

            TOTAL IN =       42018.9805              TOTAL IN =       8.2176E-03

          OUT:                                     OUT:
          ----                                     ----
             STORAGE =       12744.8047               STORAGE =       7.7241E-03
       CONSTANT HEAD =       29275.3379         CONSTANT HEAD =       4.9356E-04
            RECHARGE =           0.0000              RECHARGE =           0.0000

           TOTAL OUT =       42020.1406             TOTAL OUT =       8.2177E-03

            IN - OUT =          -1.1602              IN - OUT =      -6.3330E-08

 PERCENT DISCREPANCY =          -0.00     PERCENT DISCREPANCY =          -0.00






         TIME SUMMARY AT END OF TIME STEP    1 IN STRESS PERIOD  104
                    SECONDS     MINUTES      HOURS       DAYS        YEARS
                    -----------------------------------------------------------
   TIME STEP LENGTH  86400.      1440.0      24.000      1.0000     2.73785E-03
 STRESS PERIOD TIME  86400.      1440.0      24.000      1.0000     2.73785E-03
         TOTAL TIME 1.24416E+07 2.07360E+05  3456.0      144.00     0.39425    
1
1
                            STRESS PERIOD NO.  105, LENGTH =   259200.0    
                            -----------------------------------------------

                              NUMBER OF TIME STEPS =     3

                               MULTIPLIER FOR DELT =     1.000

                            INITIAL TIME STEP SIZE =   86400.00    

 REUSING RECH FROM LAST STRESS PERIOD

 CHD NO.   LAYER   ROW   COL    START HEAD        END HEAD         IFACE           
 ----------------------------------------------------------------------------------
      1      4      1      1       110.3           110.7           0.000    
      2      5      1      1       110.3           110.7           0.000    
      3      4      1      2       110.3           110.7           0.000    
      4      5      1      2       110.3           110.7           0.000    
      5      4      1      3       110.3           110.7           0.000    
      6      5      1      3       110.3           110.7           0.000    
      7      4      1      4       110.3           110.7           0.000    
      8      5      1      4       110.3           110.7           0.000    
      9      4      1      5       110.3           110.7           0.000    
     10      5      1      5       110.3           110.7           0.000    
     11      4      1      6       110.3           110.7           0.000    
     12      5      1      6       110.3           110.7           0.000    
     13      4      1      7       110.3           110.7           0.000    
     14      5      1      7       110.3           110.7           0.000    
     15      4      1      8       110.3           110.7           0.000    
     16      5      1      8       110.3           110.7           0.000    
     17      4      1      9       110.3           110.7           0.000    
     18      5      1      9       110.3           110.7           0.000    
     19      4      1     10       110.3           110.7           0.000    
     20      5      1     10       110.3           110.7           0.000    
     21      4      1     11       110.3           110.7           0.000    
     22      5      1     11       110.3           110.7           0.000    
     23      4      1     12       110.3           110.7           0.000    
     24      5      1     12       110.3           110.7           0.000    
     25      4      1     13       110.3           110.7           0.000    
     26      5      1     13       110.3           110.7           0.000    
     27      4      1     14       110.3           110.7           0.000    
     28      5      1     14       110.3           110.7           0.000    
     29      4      1     15       110.3           110.7           0.000    
     30      5      1     15       110.3           110.7           0.000    
     31      4      1     16       110.3           110.7           0.000    
     32      5      1     16       110.3           110.7           0.000    
     33      4      1     17       110.3           110.7           0.000    
     34      5      1     17       110.3           110.7           0.000    
     35      4     17     17       110.7           110.9           0.000    
     36      5     17     17       110.7           110.9           0.000    
     37      4     18     17       110.7           110.9           0.000    
     38      5     18     17       110.7           110.9           0.000    
     39      4     18     16       110.7           110.9           0.000    
     40      5     18     16       110.7           110.9           0.000    
     41      4     19     16       110.7           110.9           0.000    
     42      5     19     16       110.7           110.9           0.000    
     43      4     19     15       110.7           110.9           0.000    
     44      5     19     15       110.7           110.9           0.000    
     45      4     20     15       110.7           110.9           0.000    
     46      5     20     15       110.7           110.9           0.000    
     47      4     20     14       110.7           110.9           0.000    
     48      5     20     14       110.7           110.9           0.000    
     49      4     20     13       110.7           110.9           0.000    
     50      5     20     13       110.7           110.9           0.000    
     51      4     20     12       110.7           110.9           0.000    
     52      5     20     12       110.7           110.9           0.000    
     53      4     20     11       110.7           110.9           0.000    
     54      5     20     11       110.7           110.9           0.000    
     55      4     21     11       110.7           110.9           0.000    
     56      5     21     11       110.7           110.9           0.000    
     57      4     21     10       110.7           110.9           0.000    
     58      5     21     10       110.7           110.9           0.000    
     59      4     21      9       110.7           110.9           0.000    
     60      5     21      9       110.7           110.9           0.000    
     61      4     21      8       110.7           110.9           0.000    
     62      5     21      8       110.7           110.9           0.000    
     63      4     21      7       110.6           110.9           0.000    
     64      5     21      7       110.6           110.9           0.000    
     65      4     21      6       110.6           110.9           0.000    
     66      5     21      6       110.6           110.9           0.000    
     67      4     21      5       110.6           110.9           0.000    
     68      5     21      5       110.6           110.9           0.000    
     69      4     22      5       110.6           110.9           0.000    
     70      5     22      5       110.6           110.9           0.000    
     71      4     22      4       110.6           110.9           0.000    
     72      5     22      4       110.6           110.9           0.000    
     73      4     22      3       110.6           110.9           0.000    
     74      5     22      3       110.6           110.9           0.000    
     75      4     22      2       110.6           110.9           0.000    
     76      5     22      2       110.6           110.9           0.000    
     77      4     22      1       110.6           110.9           0.000    
     78      5     22      1       110.6           110.9           0.000    


     78 TIME-VARIANT SPECIFIED-HEAD CELLS

 SOLVING FOR HEAD 


     4 CALLS TO PCG ROUTINE FOR TIME STEP   1 IN STRESS PERIOD  105
    61 TOTAL ITERATIONS

 MAXIMUM HEAD CHANGE FOR EACH ITERATION (1 INDICATES THE FIRST INNER ITERATION):

    HEAD CHANGE    HEAD CHANGE    HEAD CHANGE    HEAD CHANGE    HEAD CHANGE 
   LAYER,ROW,COL  LAYER,ROW,COL  LAYER,ROW,COL  LAYER,ROW,COL  LAYER,ROW,COL
 ---------------------------------------------------------------------------
  1  0.2438      0 -0.1547      0  0.1343      0  0.1038      0  0.1333    
   (  5, 21,  2)  (  5, 17,  1)  (  5, 15,  1)  (  5, 17,  1)  (  5, 19,  1)
  0  0.8104E-01  0 -0.6897E-01  0  0.5211E-01  0  0.4347E-01  0  0.2668E-01
   (  5, 17,  4)  (  5, 18,  1)  (  5, 17,  1)  (  5, 18,  1)  (  5, 19,  1)
  0  0.1963E-01  0  0.1237E-01  0 -0.1056E-01  0  0.8572E-02  0  0.6273E-02
   (  5, 14,  5)  (  5, 14,  1)  (  5, 16,  2)  (  5, 12,  5)  (  5, 19,  3)
  0 -0.5662E-02  0  0.4053E-02  0 -0.3091E-02  0 -0.3492E-02  0 -0.1449E-02
   (  5, 18,  2)  (  5, 18,  1)  (  5, 16,  1)  (  5, 19,  3)  (  5, 17,  2)
  0  0.1286E-02  0 -0.9697E-03  0  0.8437E-03  0  0.7668E-03  0  0.4695E-03
   (  5, 17,  1)  (  5, 15,  1)  (  5, 16,  2)  (  5, 19,  2)  (  5, 18,  5)
  0  0.2462E-03  0  0.2461E-03  0  0.1558E-03  0  0.1592E-03  0 -0.9650E-04
   (  5, 20,  3)  (  5, 14,  2)  (  5, 19,  1)  (  5,  6,  1)  (  5,  6,  1)
  1 -0.6084E-03  0  0.7663E-03  0  0.5679E-03  0 -0.3362E-03  0 -0.2031E-03
   (  5, 16,  1)  (  5, 14,  1)  (  5, 12,  3)  (  5, 13,  3)  (  5, 18,  2)
  0  0.2132E-03  0 -0.1726E-03  0  0.9416E-04  0 -0.6469E-04  0 -0.3883E-04
   (  5, 19,  1)  (  5, 20,  1)  (  5, 20,  1)  (  5, 20,  1)  (  5, 19,  3)
  0  0.3433E-04  0 -0.3787E-04  0 -0.2481E-04  0 -0.1864E-04  0  0.2063E-04
   (  5, 16,  3)  (  5, 16,  1)  (  5, 16,  3)  (  5, 19,  4)  (  5, 19,  3)
  0 -0.1050E-04  0 -0.8087E-05  0  0.6779E-05  0 -0.4954E-05  0  0.3862E-05
   (  5, 17,  3)  (  5, 19,  3)  (  5, 20,  3)  (  5, 18,  1)  (  5, 16,  1)
  0 -0.2686E-05  0  0.2059E-05  0  0.1677E-05  0 -0.1605E-05  0  0.1198E-05
   (  5, 14,  2)  (  5, 13,  5)  (  5, 20,  2)  (  5, 19,  1)  (  5, 20,  1)
  0  0.6378E-06  1 -0.2006E-05  0 -0.2077E-05  0  0.1159E-05  0 -0.8992E-06
   (  5,  7,  1)  (  5,  7,  1)  (  5, 12,  1)  (  5, 13,  2)  (  5, 15,  1)
  1  0.8056E-06
   (  5, 16,  2)

 MAXIMUM RESIDUAL FOR EACH ITERATION (1 INDICATES THE FIRST INNER ITERATION):

    RESIDUAL       RESIDUAL       RESIDUAL       RESIDUAL       RESIDUAL    
   LAYER,ROW,COL  LAYER,ROW,COL  LAYER,ROW,COL  LAYER,ROW,COL  LAYER,ROW,COL
 ---------------------------------------------------------------------------
  1 -0.4737E-02  0 -0.4215E-02  0 -0.3748E-02  0 -0.3177E-02  0 -0.2511E-02
   (  3, 17, 17)  (  3, 17, 17)  (  3, 17, 17)  (  3, 17, 17)  (  3, 17, 17)
  0 -0.1859E-02  0 -0.1194E-02  0 -0.6742E-03  0 -0.3707E-03  0  0.2383E-03
   (  3, 17, 17)  (  3, 17, 17)  (  3, 17, 17)  (  3, 20, 11)  (  4, 21,  2)
  0  0.2134E-03  0  0.1659E-03  0  0.1562E-03  0 -0.1212E-03  0 -0.9423E-04
   (  4, 21,  2)  (  4, 21,  2)  (  4, 21,  2)  (  4, 16, 17)  (  4, 16, 17)
  0 -0.7763E-04  0 -0.6271E-04  0 -0.4429E-04  0  0.3192E-04  0  0.2418E-04
   (  4, 16, 17)  (  4, 16, 17)  (  4, 16, 17)  (  3, 21,  6)  (  3, 21,  6)
  0  0.2014E-04  0  0.1806E-04  0  0.1590E-04  0  0.1177E-04  0  0.7690E-05
   (  3, 21,  6)  (  3, 21,  6)  (  3, 21,  6)  (  3, 21,  6)  (  3, 21,  6)
  0  0.4770E-05  0  0.2853E-05  0  0.2360E-05  0 -0.1076E-05  0 -0.8494E-06
   (  3, 21,  6)  (  3, 21,  6)  (  3, 21,  6)  (  5, 15, 17)  (  5, 15, 17)
  1  0.2342E-05  0  0.3593E-05  0  0.1524E-05  0 -0.9616E-06  0 -0.9195E-06
   (  2, 17, 17)  (  5,  6,  1)  (  5,  7,  2)  (  3, 17, 17)  (  3, 17, 17)
  0 -0.8478E-06  0 -0.7533E-06  0 -0.6235E-06  0 -0.5018E-06  0 -0.3943E-06
   (  3, 17, 17)  (  3, 17, 17)  (  3, 17, 17)  (  3, 17, 17)  (  3, 17, 17)
  0 -0.3444E-06  0 -0.3036E-06  0  0.2283E-06  0  0.1630E-06  0  0.1164E-06
   (  3, 17, 17)  (  3, 17, 17)  (  2, 17, 17)  (  2, 17, 17)  (  2, 17, 17)
  0 -0.9035E-07  0 -0.6804E-07  0 -0.4919E-07  0 -0.4285E-07  0 -0.3591E-07
   (  4, 18, 14)  (  4, 18, 14)  (  4, 18, 14)  (  4, 18, 14)  (  3, 17, 17)
  0 -0.3325E-07  0 -0.2670E-07  0 -0.2075E-07  0 -0.1805E-07  0 -0.1333E-07
   (  3, 17, 17)  (  3, 17, 17)  (  3, 17, 17)  (  3, 17, 17)  (  3, 17, 17)
  0 -0.9132E-08  1 -0.9881E-08  0  0.5117E-08  0  0.4370E-08  0  0.4136E-08
   (  3, 17, 17)  (  5,  7,  1)  (  4, 20,  2)  (  3, 19, 14)  (  3, 19, 14)
  1  0.3967E-08
   (  3, 19, 14)



 OUTPUT CONTROL FOR STRESS PERIOD  105   TIME STEP    1
    SAVE HEAD FOR ALL LAYERS
    SAVE DRAWDOWN FOR ALL LAYERS
    SAVE BUDGET
    PRINT BUDGET
 UBDSV1 SAVING "         STORAGE" ON UNIT   9 AT TIME STEP  1, STRESS PERIOD 105
 UBDSV2 SAVING "   CONSTANT HEAD" ON UNIT   9 AT TIME STEP  1, STRESS PERIOD 105
 UBDSV1 SAVING "FLOW RIGHT FACE " ON UNIT   9 AT TIME STEP  1, STRESS PERIOD 105
 UBDSV1 SAVING "FLOW FRONT FACE " ON UNIT   9 AT TIME STEP  1, STRESS PERIOD 105
 UBDSV1 SAVING "FLOW LOWER FACE " ON UNIT   9 AT TIME STEP  1, STRESS PERIOD 105
 UBDSV3 SAVING "        RECHARGE" ON UNIT   9 AT TIME STEP  1, STRESS PERIOD 105

 HEAD WILL BE SAVED ON UNIT   37 AT END OF TIME STEP    1, STRESS PERIOD  105

 DRAWDOWN WILL BE SAVED ON UNIT   38 AT END OF TIME STEP    1, STRESS PERIOD  105
1
  VOLUMETRIC BUDGET FOR ENTIRE MODEL AT END OF TIME STEP    1, STRESS PERIOD 105
  ------------------------------------------------------------------------------

     CUMULATIVE VOLUMES      L**3       RATES FOR THIS TIME STEP      L**3/T
     ------------------                 ------------------------

           IN:                                      IN:
           ---                                      ---
             STORAGE =       13926.9824               STORAGE =           0.0000
       CONSTANT HEAD =       27351.9121         CONSTANT HEAD =       5.5193E-03
            RECHARGE =        1225.4037              RECHARGE =       9.7813E-05

            TOTAL IN =       42504.2969              TOTAL IN =       5.6171E-03

          OUT:                                     OUT:
          ----                                     ----
             STORAGE =       13182.7617               STORAGE =       5.0690E-03
       CONSTANT HEAD =       29322.7070         CONSTANT HEAD =       5.4825E-04
            RECHARGE =           0.0000              RECHARGE =           0.0000

           TOTAL OUT =       42505.4688             TOTAL OUT =       5.6172E-03

            IN - OUT =          -1.1719              IN - OUT =      -8.5682E-08

 PERCENT DISCREPANCY =          -0.00     PERCENT DISCREPANCY =          -0.00






         TIME SUMMARY AT END OF TIME STEP    1 IN STRESS PERIOD  105
                    SECONDS     MINUTES      HOURS       DAYS        YEARS
                    -----------------------------------------------------------
   TIME STEP LENGTH  86400.      1440.0      24.000      1.0000     2.73785E-03
 STRESS PERIOD TIME  86400.      1440.0      24.000      1.0000     2.73785E-03
         TOTAL TIME 1.25280E+07 2.08800E+05  3480.0      145.00     0.39699    
1

 SOLVING FOR HEAD 
     3 CALLS TO PCG ROUTINE FOR TIME STEP   2 IN STRESS PERIOD  105
    56 TOTAL ITERATIONS

 MAXIMUM HEAD CHANGE FOR EACH ITERATION (1 INDICATES THE FIRST INNER ITERATION):

    HEAD CHANGE    HEAD CHANGE    HEAD CHANGE    HEAD CHANGE    HEAD CHANGE 
   LAYER,ROW,COL  LAYER,ROW,COL  LAYER,ROW,COL  LAYER,ROW,COL  LAYER,ROW,COL
 ---------------------------------------------------------------------------
  1  0.2280      0 -0.1485      0  0.1310      0  0.1009      0  0.1274    
   (  5, 21,  2)  (  5, 17,  1)  (  5, 16,  2)  (  5, 17,  1)  (  5, 19,  1)
  0  0.7892E-01  0 -0.6701E-01  0 -0.4634E-01  0  0.4292E-01  0  0.2415E-01
   (  5, 20,  1)  (  5, 18,  1)  (  5, 19,  1)  (  5, 18,  1)  (  5, 19,  1)
  0  0.1918E-01  0 -0.1137E-01  0 -0.7754E-02  0  0.8331E-02  0 -0.5387E-02
   (  5, 17,  3)  (  5, 13,  5)  (  5, 16,  2)  (  5, 12,  5)  (  5, 19,  1)
  0  0.4731E-02  0 -0.5438E-02  0 -0.2681E-02  0 -0.3523E-02  0  0.1215E-02
   (  5, 18,  1)  (  5, 18,  2)  (  5, 16,  1)  (  5, 19,  3)  (  5, 18,  3)
  0  0.1078E-02  0  0.8685E-03  0 -0.5730E-03  0  0.4505E-03  0 -0.3675E-03
   (  5, 17,  5)  (  5, 16,  2)  (  5, 16,  1)  (  5, 18,  1)  (  5, 19,  1)
  0  0.3345E-03  0  0.2154E-03  0 -0.1872E-03  0  0.1512E-03  0 -0.1098E-03
   (  5, 20,  2)  (  5, 13,  2)  (  5, 15,  4)  (  5,  6,  1)  (  5,  6,  1)
  1  0.7616E-03  0 -0.4397E-03  0  0.3351E-03  0 -0.2466E-03  0  0.1476E-03
   (  5,  6,  1)  (  5, 16,  1)  (  5, 17,  2)  (  5, 12,  2)  (  5, 14,  3)
  0  0.1558E-03  0 -0.1224E-03  0  0.7692E-04  0 -0.5213E-04  0 -0.2758E-04
   (  5, 19,  1)  (  5, 20,  1)  (  5, 19,  1)  (  5, 20,  1)  (  5, 19,  3)
  0  0.2372E-04  0  0.2495E-04  0 -0.2559E-04  0  0.1455E-04  0  0.1568E-04
   (  5, 18,  4)  (  5, 14,  1)  (  5, 16,  3)  (  5, 16,  2)  (  5, 19,  3)
  0  0.7833E-05  0 -0.5892E-05  0 -0.5601E-05  0  0.4106E-05  0 -0.1891E-05
   (  5, 14,  5)  (  5, 14,  4)  (  5, 18,  1)  (  5, 20,  3)  (  5, 13,  6)
  0  0.1663E-05  0 -0.1899E-05  0 -0.1370E-05  0  0.1135E-05  0 -0.6766E-06
   (  5, 16,  2)  (  5, 16,  1)  (  5, 19,  1)  (  5, 20,  1)  (  5, 20,  2)
  1  0.9253E-06
   (  5, 19,  1)

 MAXIMUM RESIDUAL FOR EACH ITERATION (1 INDICATES THE FIRST INNER ITERATION):

    RESIDUAL       RESIDUAL       RESIDUAL       RESIDUAL       RESIDUAL    
   LAYER,ROW,COL  LAYER,ROW,COL  LAYER,ROW,COL  LAYER,ROW,COL  LAYER,ROW,COL
 ---------------------------------------------------------------------------
  1 -0.4752E-02  0 -0.4189E-02  0 -0.3683E-02  0 -0.3067E-02  0 -0.2398E-02
   (  3, 17, 17)  (  3, 17, 17)  (  3, 17, 17)  (  3, 17, 17)  (  3, 17, 17)
  0 -0.1756E-02  0 -0.1132E-02  0 -0.6406E-03  0 -0.3431E-03  0  0.2378E-03
   (  3, 17, 17)  (  3, 17, 17)  (  3, 17, 17)  (  3, 20, 11)  (  4, 21,  2)
  0  0.2104E-03  0  0.1599E-03  0  0.1530E-03  0 -0.1200E-03  0 -0.9256E-04
   (  4, 21,  2)  (  4, 21,  2)  (  4, 21,  2)  (  4, 16, 17)  (  4, 16, 17)
  0 -0.8035E-04  0 -0.6051E-04  0 -0.4312E-04  0  0.3078E-04  0  0.2326E-04
   (  4, 16, 17)  (  4, 16, 17)  (  4, 16, 17)  (  3, 21,  6)  (  3, 21,  6)
  0  0.1742E-04  0  0.1351E-04  0  0.1213E-04  0  0.8005E-05  0  0.5964E-05
   (  3, 21,  6)  (  3, 21,  6)  (  3, 21,  6)  (  3, 21,  6)  (  3, 21,  6)
  0  0.4566E-05  0  0.3777E-05  0  0.2149E-05  0 -0.9773E-06  0 -0.7372E-06
   (  3, 21,  6)  (  3, 21,  6)  (  3, 21,  6)  (  5, 15, 17)  (  5, 15, 17)
  1  0.3813E-05  0  0.3363E-05  0 -0.9947E-06  0 -0.7018E-06  0 -0.6689E-06
   (  5,  6,  1)  (  5,  6,  1)  (  4, 14,  2)  (  3, 17, 17)  (  3, 17, 17)
  0 -0.6185E-06  0 -0.5662E-06  0 -0.4823E-06  0 -0.4030E-06  0 -0.3207E-06
   (  3, 17, 17)  (  3, 17, 17)  (  3, 17, 17)  (  3, 17, 17)  (  3, 17, 17)
  0 -0.2667E-06  0  0.2302E-06  0  0.1936E-06  0  0.1377E-06  0  0.9819E-07
   (  3, 17, 17)  (  2, 17, 17)  (  2, 17, 17)  (  2, 17, 17)  (  2, 17, 17)
  0 -0.6754E-07  0 -0.5627E-07  0 -0.4681E-07  0 -0.3486E-07  0 -0.2893E-07
   (  4, 18, 14)  (  4, 18, 14)  (  4, 18, 14)  (  3, 17, 17)  (  3, 17, 17)
  0 -0.2682E-07  0 -0.2274E-07  0 -0.1673E-07  0 -0.1227E-07  0 -0.1043E-07
   (  3, 17, 17)  (  3, 17, 17)  (  3, 17, 17)  (  3, 17, 17)  (  3, 17, 17)
  1 -0.9846E-08
   (  3, 17, 17)



 OUTPUT CONTROL FOR STRESS PERIOD  105   TIME STEP    2
    SAVE HEAD FOR ALL LAYERS
    SAVE DRAWDOWN FOR ALL LAYERS
    SAVE BUDGET
    PRINT BUDGET
 UBDSV1 SAVING "         STORAGE" ON UNIT   9 AT TIME STEP  2, STRESS PERIOD 105
 UBDSV2 SAVING "   CONSTANT HEAD" ON UNIT   9 AT TIME STEP  2, STRESS PERIOD 105
 UBDSV1 SAVING "FLOW RIGHT FACE " ON UNIT   9 AT TIME STEP  2, STRESS PERIOD 105
 UBDSV1 SAVING "FLOW FRONT FACE " ON UNIT   9 AT TIME STEP  2, STRESS PERIOD 105
 UBDSV1 SAVING "FLOW LOWER FACE " ON UNIT   9 AT TIME STEP  2, STRESS PERIOD 105
 UBDSV3 SAVING "        RECHARGE" ON UNIT   9 AT TIME STEP  2, STRESS PERIOD 105

 HEAD WILL BE SAVED ON UNIT   37 AT END OF TIME STEP    2, STRESS PERIOD  105

 DRAWDOWN WILL BE SAVED ON UNIT   38 AT END OF TIME STEP    2, STRESS PERIOD  105
1
  VOLUMETRIC BUDGET FOR ENTIRE MODEL AT END OF TIME STEP    2, STRESS PERIOD 105
  ------------------------------------------------------------------------------

     CUMULATIVE VOLUMES      L**3       RATES FOR THIS TIME STEP      L**3/T
     ------------------                 ------------------------

           IN:                                      IN:
           ---                                      ---
             STORAGE =       13926.9824               STORAGE =           0.0000
       CONSTANT HEAD =       27750.0215         CONSTANT HEAD =       4.6077E-03
            RECHARGE =        1233.8547              RECHARGE =       9.7813E-05

            TOTAL IN =       42910.8594              TOTAL IN =       4.7056E-03

          OUT:                                     OUT:
          ----                                     ----
             STORAGE =       13559.4414               STORAGE =       4.3597E-03
       CONSTANT HEAD =       29352.5977         CONSTANT HEAD =       3.4595E-04
            RECHARGE =           0.0000              RECHARGE =           0.0000

           TOTAL OUT =       42912.0391             TOTAL OUT =       4.7057E-03

            IN - OUT =          -1.1797              IN - OUT =      -1.0012E-07

 PERCENT DISCREPANCY =          -0.00     PERCENT DISCREPANCY =          -0.00






         TIME SUMMARY AT END OF TIME STEP    2 IN STRESS PERIOD  105
                    SECONDS     MINUTES      HOURS       DAYS        YEARS
                    -----------------------------------------------------------
   TIME STEP LENGTH  86400.      1440.0      24.000      1.0000     2.73785E-03
 STRESS PERIOD TIME 1.72800E+05  2880.0      48.000      2.0000     5.47570E-03
         TOTAL TIME 1.26144E+07 2.10240E+05  3504.0      146.00     0.39973    
1

 SOLVING FOR HEAD 
     3 CALLS TO PCG ROUTINE FOR TIME STEP   3 IN STRESS PERIOD  105
    59 TOTAL ITERATIONS

 MAXIMUM HEAD CHANGE FOR EACH ITERATION (1 INDICATES THE FIRST INNER ITERATION):

    HEAD CHANGE    HEAD CHANGE    HEAD CHANGE    HEAD CHANGE    HEAD CHANGE 
   LAYER,ROW,COL  LAYER,ROW,COL  LAYER,ROW,COL  LAYER,ROW,COL  LAYER,ROW,COL
 ---------------------------------------------------------------------------
  1  0.2230      0 -0.1463      0  0.1292      0  0.9998E-01  0  0.1270    
   (  5, 21,  2)  (  5, 17,  1)  (  5, 16,  2)  (  5, 17,  1)  (  5, 19,  1)
  0  0.7778E-01  0 -0.6623E-01  0 -0.4599E-01  0  0.4219E-01  0  0.2364E-01
   (  5, 20,  1)  (  5, 18,  1)  (  5, 19,  1)  (  5, 18,  1)  (  5, 19,  1)
  0  0.1991E-01  0 -0.1641E-01  0  0.9040E-02  0  0.8632E-02  0  0.5965E-02
   (  5, 17,  3)  (  5, 16,  3)  (  5, 15,  1)  (  5, 12,  5)  (  5, 19,  3)
  0 -0.5907E-02  0  0.3727E-02  0 -0.2990E-02  0 -0.3446E-02  0  0.1221E-02
   (  5, 18,  2)  (  5, 18,  1)  (  5, 16,  1)  (  5, 19,  3)  (  5, 18,  3)
  0  0.1127E-02  0 -0.8206E-03  0  0.7424E-03  0  0.6293E-03  0  0.4185E-03
   (  5, 20,  1)  (  5, 19,  1)  (  5, 16,  2)  (  5, 19,  2)  (  5, 18,  5)
  0  0.2697E-03  0  0.2368E-03  0  0.1965E-03  0  0.1475E-03  0 -0.1083E-03
   (  5, 20,  3)  (  5, 14,  2)  (  5, 19,  1)  (  5,  6,  1)  (  5,  6,  1)
  1  0.2536E-02  0  0.7494E-03  0  0.1008E-02  0 -0.5734E-03  0 -0.4462E-03
   (  2, 19, 13)  (  5, 15,  1)  (  2, 19, 13)  (  5, 13,  3)  (  5, 18,  1)
  0  0.4086E-03  0  0.2386E-03  0  0.2039E-03  0 -0.1557E-03  0  0.1041E-03
   (  5, 19,  1)  (  5, 17,  3)  (  5, 20,  1)  (  5, 20,  1)  (  5, 20,  1)
  0 -0.7264E-04  0  0.7694E-04  0 -0.4685E-04  0 -0.3543E-04  0  0.3924E-04
   (  5, 16,  1)  (  5, 17,  1)  (  5, 15,  2)  (  5, 15,  4)  (  5, 19,  3)
  0 -0.2769E-04  0  0.2171E-04  0  0.1303E-04  0 -0.1526E-04  0  0.9249E-05
   (  5, 17,  4)  (  5, 17,  4)  (  5, 19,  2)  (  5, 18,  1)  (  5, 18,  1)
  0 -0.5930E-05  0  0.5061E-05  0 -0.4535E-05  0  0.3140E-05  0  0.2489E-05
   (  5, 16,  1)  (  5, 17,  2)  (  5, 19,  1)  (  5, 19,  1)  (  5, 18,  4)
  0 -0.1581E-05  0 -0.1100E-05  0  0.6349E-06  1 -0.8488E-06
   (  5,  6,  2)  (  5,  7,  1)  (  5, 19,  4)  (  5, 16,  1)

 MAXIMUM RESIDUAL FOR EACH ITERATION (1 INDICATES THE FIRST INNER ITERATION):

    RESIDUAL       RESIDUAL       RESIDUAL       RESIDUAL       RESIDUAL    
   LAYER,ROW,COL  LAYER,ROW,COL  LAYER,ROW,COL  LAYER,ROW,COL  LAYER,ROW,COL
 ---------------------------------------------------------------------------
  1 -0.4758E-02  0 -0.4192E-02  0 -0.3681E-02  0 -0.3051E-02  0 -0.2375E-02
   (  3, 17, 17)  (  3, 17, 17)  (  3, 17, 17)  (  3, 17, 17)  (  3, 17, 17)
  0 -0.1733E-02  0 -0.1119E-02  0 -0.6376E-03  0 -0.3428E-03  0  0.2372E-03
   (  3, 17, 17)  (  3, 17, 17)  (  3, 17, 17)  (  3, 20, 11)  (  4, 21,  2)
  0  0.2088E-03  0  0.1673E-03  0 -0.1527E-03  0 -0.1215E-03  0 -0.9262E-04
   (  4, 21,  2)  (  4, 21,  2)  (  4, 16, 17)  (  4, 16, 17)  (  4, 16, 17)
  0 -0.7059E-04  0 -0.6022E-04  0 -0.4308E-04  0  0.3055E-04  0  0.2315E-04
   (  4, 16, 17)  (  4, 16, 17)  (  4, 16, 17)  (  3, 21,  6)  (  3, 21,  6)
  0  0.1862E-04  0  0.1638E-04  0  0.1509E-04  0  0.1121E-04  0  0.7274E-05
   (  3, 21,  6)  (  3, 21,  6)  (  3, 21,  6)  (  3, 21,  6)  (  3, 21,  6)
  0  0.4446E-05  0  0.3060E-05  0  0.2132E-05  0 -0.9588E-06  0 -0.7253E-06
   (  3, 21,  6)  (  3, 21,  6)  (  3, 21,  6)  (  5, 15, 17)  (  5, 15, 17)
  1 -0.7457E-05  0 -0.7057E-05  0  0.5801E-05  0  0.4916E-05  0 -0.4220E-05
   (  2, 20, 11)  (  2, 20, 11)  (  5, 19, 14)  (  5, 19, 14)  (  2, 20, 11)
  0 -0.3666E-05  0 -0.3182E-05  0 -0.2736E-05  0 -0.2357E-05  0 -0.1949E-05
   (  2, 20, 11)  (  2, 20, 11)  (  2, 20, 11)  (  2, 20, 11)  (  2, 20, 11)
  0 -0.1561E-05  0 -0.1316E-05  0 -0.1180E-05  0 -0.8701E-06  0 -0.6684E-06
   (  2, 20, 11)  (  2, 20, 11)  (  2, 20, 11)  (  2, 20, 11)  (  2, 20, 11)
  0 -0.4743E-06  0 -0.3470E-06  0 -0.2906E-06  0 -0.2370E-06  0 -0.1749E-06
   (  2, 20, 11)  (  2, 20, 11)  (  2, 20, 11)  (  2, 20, 11)  (  2, 20, 11)
  0 -0.1440E-06  0 -0.1233E-06  0 -0.9070E-07  0 -0.7823E-07  0 -0.5177E-07
   (  2, 20, 11)  (  2, 20, 11)  (  2, 20, 11)  (  2, 20, 11)  (  2, 20, 11)
  0 -0.3532E-07  0 -0.2374E-07  0 -0.1649E-07  1 -0.1779E-07
   (  2, 20, 11)  (  2, 20, 11)  (  2, 20, 11)  (  2, 16, 11)



 OUTPUT CONTROL FOR STRESS PERIOD  105   TIME STEP    3
    SAVE HEAD FOR ALL LAYERS
    SAVE DRAWDOWN FOR ALL LAYERS
    SAVE BUDGET
    PRINT BUDGET
 UBDSV1 SAVING "         STORAGE" ON UNIT   9 AT TIME STEP  3, STRESS PERIOD 105
 UBDSV2 SAVING "   CONSTANT HEAD" ON UNIT   9 AT TIME STEP  3, STRESS PERIOD 105
 UBDSV1 SAVING "FLOW RIGHT FACE " ON UNIT   9 AT TIME STEP  3, STRESS PERIOD 105
 UBDSV1 SAVING "FLOW FRONT FACE " ON UNIT   9 AT TIME STEP  3, STRESS PERIOD 105
 UBDSV1 SAVING "FLOW LOWER FACE " ON UNIT   9 AT TIME STEP  3, STRESS PERIOD 105
 UBDSV3 SAVING "        RECHARGE" ON UNIT   9 AT TIME STEP  3, STRESS PERIOD 105

 HEAD WILL BE SAVED ON UNIT   37 AT END OF TIME STEP    3, STRESS PERIOD  105

 DRAWDOWN WILL BE SAVED ON UNIT   38 AT END OF TIME STEP    3, STRESS PERIOD  105
1
  VOLUMETRIC BUDGET FOR ENTIRE MODEL AT END OF TIME STEP    3, STRESS PERIOD 105
  ------------------------------------------------------------------------------

     CUMULATIVE VOLUMES      L**3       RATES FOR THIS TIME STEP      L**3/T
     ------------------                 ------------------------

           IN:                                      IN:
           ---                                      ---
             STORAGE =       13926.9824               STORAGE =           0.0000
       CONSTANT HEAD =       28097.7559         CONSTANT HEAD =       4.0247E-03
            RECHARGE =        1242.3058              RECHARGE =       9.7813E-05

            TOTAL IN =       43267.0430              TOTAL IN =       4.1225E-03

          OUT:                                     OUT:
          ----                                     ----
             STORAGE =       13911.4443               STORAGE =       4.0741E-03
       CONSTANT HEAD =       29356.7852         CONSTANT HEAD =       4.8472E-05
            RECHARGE =           0.0000              RECHARGE =           0.0000

           TOTAL OUT =       43268.2305             TOTAL OUT =       4.1226E-03

            IN - OUT =          -1.1875              IN - OUT =      -7.1712E-08

 PERCENT DISCREPANCY =          -0.00     PERCENT DISCREPANCY =          -0.00






         TIME SUMMARY AT END OF TIME STEP    3 IN STRESS PERIOD  105
                    SECONDS     MINUTES      HOURS       DAYS        YEARS
                    -----------------------------------------------------------
   TIME STEP LENGTH  86400.      1440.0      24.000      1.0000     2.73785E-03
 STRESS PERIOD TIME 2.59200E+05  4320.0      72.000      3.0000     8.21355E-03
         TOTAL TIME 1.27008E+07 2.11680E+05  3528.0      147.00     0.40246    
1
1
                            STRESS PERIOD NO.  106, LENGTH =   86400.00    
                            -----------------------------------------------

                              NUMBER OF TIME STEPS =     1

                               MULTIPLIER FOR DELT =     1.000

                            INITIAL TIME STEP SIZE =   86400.00    

 REUSING RECH FROM LAST STRESS PERIOD

 CHD NO.   LAYER   ROW   COL    START HEAD        END HEAD         IFACE           
 ----------------------------------------------------------------------------------
      1      4      1      1       110.7           110.7           0.000    
      2      5      1      1       110.7           110.7           0.000    
      3      4      1      2       110.7           110.7           0.000    
      4      5      1      2       110.7           110.7           0.000    
      5      4      1      3       110.7           110.7           0.000    
      6      5      1      3       110.7           110.7           0.000    
      7      4      1      4       110.7           110.7           0.000    
      8      5      1      4       110.7           110.7           0.000    
      9      4      1      5       110.7           110.7           0.000    
     10      5      1      5       110.7           110.7           0.000    
     11      4      1      6       110.7           110.7           0.000    
     12      5      1      6       110.7           110.7           0.000    
     13      4      1      7       110.7           110.7           0.000    
     14      5      1      7       110.7           110.7           0.000    
     15      4      1      8       110.7           110.7           0.000    
     16      5      1      8       110.7           110.7           0.000    
     17      4      1      9       110.7           110.7           0.000    
     18      5      1      9       110.7           110.7           0.000    
     19      4      1     10       110.7           110.7           0.000    
     20      5      1     10       110.7           110.7           0.000    
     21      4      1     11       110.7           110.7           0.000    
     22      5      1     11       110.7           110.7           0.000    
     23      4      1     12       110.7           110.7           0.000    
     24      5      1     12       110.7           110.7           0.000    
     25      4      1     13       110.7           110.7           0.000    
     26      5      1     13       110.7           110.7           0.000    
     27      4      1     14       110.7           110.7           0.000    
     28      5      1     14       110.7           110.7           0.000    
     29      4      1     15       110.7           110.7           0.000    
     30      5      1     15       110.7           110.7           0.000    
     31      4      1     16       110.7           110.7           0.000    
     32      5      1     16       110.7           110.7           0.000    
     33      4      1     17       110.7           110.7           0.000    
     34      5      1     17       110.7           110.7           0.000    
     35      4     17     17       110.9           110.8           0.000    
     36      5     17     17       110.9           110.8           0.000    
     37      4     18     17       110.9           110.8           0.000    
     38      5     18     17       110.9           110.8           0.000    
     39      4     18     16       110.9           110.8           0.000    
     40      5     18     16       110.9           110.8           0.000    
     41      4     19     16       110.9           110.8           0.000    
     42      5     19     16       110.9           110.8           0.000    
     43      4     19     15       110.9           110.8           0.000    
     44      5     19     15       110.9           110.8           0.000    
     45      4     20     15       110.9           110.8           0.000    
     46      5     20     15       110.9           110.8           0.000    
     47      4     20     14       110.9           110.8           0.000    
     48      5     20     14       110.9           110.8           0.000    
     49      4     20     13       110.9           110.8           0.000    
     50      5     20     13       110.9           110.8           0.000    
     51      4     20     12       110.9           110.8           0.000    
     52      5     20     12       110.9           110.8           0.000    
     53      4     20     11       110.9           110.8           0.000    
     54      5     20     11       110.9           110.8           0.000    
     55      4     21     11       110.9           110.8           0.000    
     56      5     21     11       110.9           110.8           0.000    
     57      4     21     10       110.9           110.8           0.000    
     58      5     21     10       110.9           110.8           0.000    
     59      4     21      9       110.9           110.8           0.000    
     60      5     21      9       110.9           110.8           0.000    
     61      4     21      8       110.9           110.8           0.000    
     62      5     21      8       110.9           110.8           0.000    
     63      4     21      7       110.9           110.8           0.000    
     64      5     21      7       110.9           110.8           0.000    
     65      4     21      6       110.9           110.7           0.000    
     66      5     21      6       110.9           110.7           0.000    
     67      4     21      5       110.9           110.7           0.000    
     68      5     21      5       110.9           110.7           0.000    
     69      4     22      5       110.9           110.7           0.000    
     70      5     22      5       110.9           110.7           0.000    
     71      4     22      4       110.9           110.7           0.000    
     72      5     22      4       110.9           110.7           0.000    
     73      4     22      3       110.9           110.7           0.000    
     74      5     22      3       110.9           110.7           0.000    
     75      4     22      2       110.9           110.7           0.000    
     76      5     22      2       110.9           110.7           0.000    
     77      4     22      1       110.9           110.7           0.000    
     78      5     22      1       110.9           110.7           0.000    


     78 TIME-VARIANT SPECIFIED-HEAD CELLS

 SOLVING FOR HEAD 


     4 CALLS TO PCG ROUTINE FOR TIME STEP   1 IN STRESS PERIOD  106
    67 TOTAL ITERATIONS

 MAXIMUM HEAD CHANGE FOR EACH ITERATION (1 INDICATES THE FIRST INNER ITERATION):

    HEAD CHANGE    HEAD CHANGE    HEAD CHANGE    HEAD CHANGE    HEAD CHANGE 
   LAYER,ROW,COL  LAYER,ROW,COL  LAYER,ROW,COL  LAYER,ROW,COL  LAYER,ROW,COL
 ---------------------------------------------------------------------------
  1 -0.2750      0  0.1843      0 -0.1548      0 -0.1212      0 -0.1780    
   (  5, 21,  2)  (  5, 17,  1)  (  5, 16,  2)  (  5, 17,  1)  (  5, 19,  1)
  0 -0.9724E-01  0  0.9107E-01  0  0.6714E-01  0 -0.5646E-01  0  0.3420E-01
   (  5, 20,  1)  (  5, 18,  1)  (  5, 19,  1)  (  5, 18,  1)  (  5, 18,  3)
  0 -0.2491E-01  0 -0.1738E-01  0  0.1676E-01  0 -0.1272E-01  0  0.8030E-02
   (  5, 17,  3)  (  5, 14,  1)  (  5, 16,  2)  (  5, 12,  5)  (  5, 19,  1)
  0 -0.5157E-02  0  0.4351E-02  0  0.3787E-02  0  0.5096E-02  0  0.1718E-02
   (  5, 18,  1)  (  5, 18,  2)  (  5, 16,  3)  (  5, 19,  3)  (  5, 17,  2)
  0  0.1706E-02  0 -0.1322E-02  0  0.1271E-02  0 -0.1203E-02  0 -0.5748E-03
   (  5, 17,  2)  (  5, 16,  1)  (  5, 19,  1)  (  5, 19,  2)  (  5, 18,  5)
  0 -0.4192E-03  0 -0.2641E-03  0 -0.2151E-03  0  0.2626E-03  0  0.1426E-03
   (  5, 20,  3)  (  5, 14,  2)  (  5, 19,  2)  (  5, 18,  1)  (  5,  6,  1)
  1  0.3433E-02  0 -0.1920E-02  0  0.1705E-02  0 -0.1389E-02  0 -0.9018E-03
   (  2, 18, 12)  (  5, 15,  1)  (  5, 12,  4)  (  5, 12,  3)  (  5, 18,  2)
  0  0.7848E-03  0 -0.8131E-03  0  0.4124E-03  0 -0.2518E-03  0  0.1616E-03
   (  5, 18,  1)  (  5, 19,  1)  (  5, 20,  1)  (  5, 20,  1)  (  5, 20,  1)
  0  0.1345E-03  0 -0.1127E-03  0  0.1263E-03  0 -0.8022E-04  0  0.6320E-04
   (  5, 19,  3)  (  5, 16,  3)  (  5, 16,  1)  (  5, 17,  1)  (  5, 13,  6)
  0  0.4958E-04  0 -0.4959E-04  0  0.2836E-04  0  0.2992E-04  0 -0.1768E-04
   (  5, 17,  4)  (  5, 18,  1)  (  5, 19,  2)  (  5, 15,  4)  (  5, 15,  4)
  0  0.1094E-04  0 -0.7539E-05  0 -0.6770E-05  0  0.5286E-05  0 -0.5039E-05
   (  5, 17,  4)  (  5, 16,  2)  (  5, 20,  1)  (  5, 19,  1)  (  5, 20,  3)
  0  0.2470E-05  0 -0.1555E-05  0  0.1242E-05  0  0.1020E-05  0 -0.9188E-06
   (  5, 14,  1)  (  5, 15,  2)  (  5, 19,  1)  (  5, 14,  2)  (  5, 14,  1)
  1  0.5267E-05  0  0.8133E-05  0  0.3072E-05  0  0.2257E-05  0  0.1891E-05
   (  5, 16,  1)  (  2, 19, 14)  (  5, 14,  2)  (  5, 19,  1)  (  5, 12,  4)
  0  0.8530E-06  1  0.5137E-06
   (  5, 16,  4)  (  5, 19,  1)

 MAXIMUM RESIDUAL FOR EACH ITERATION (1 INDICATES THE FIRST INNER ITERATION):

    RESIDUAL       RESIDUAL       RESIDUAL       RESIDUAL       RESIDUAL    
   LAYER,ROW,COL  LAYER,ROW,COL  LAYER,ROW,COL  LAYER,ROW,COL  LAYER,ROW,COL
 ---------------------------------------------------------------------------
  1  0.8505E-02  0  0.7717E-02  0  0.7005E-02  0  0.6008E-02  0  0.4794E-02
   (  3, 17, 17)  (  3, 17, 17)  (  3, 17, 17)  (  3, 17, 17)  (  3, 17, 17)
  0  0.3592E-02  0  0.2395E-02  0  0.1476E-02  0  0.8958E-03  0  0.5758E-03
   (  3, 17, 17)  (  3, 17, 17)  (  3, 17, 17)  (  3, 17, 17)  (  3, 20, 11)
  0  0.3925E-03  0  0.3154E-03  0  0.2934E-03  0  0.2428E-03  0  0.1890E-03
   (  3, 17, 17)  (  4, 16, 17)  (  4, 16, 17)  (  4, 16, 17)  (  4, 16, 17)
  0  0.1418E-03  0  0.1281E-03  0  0.9485E-04  0  0.6733E-04  0  0.4658E-04
   (  4, 16, 17)  (  4, 16, 17)  (  4, 16, 17)  (  4, 16, 17)  (  4, 16, 17)
  0  0.3557E-04  0  0.3209E-04  0  0.2697E-04  0  0.1977E-04  0  0.1229E-04
   (  4, 16, 17)  (  4, 16, 17)  (  4, 16, 17)  (  4, 16, 17)  (  4, 16, 17)
  0  0.7205E-05  0  0.3880E-05  0  0.3031E-05  0  0.1791E-05  0  0.1371E-05
   (  4, 16, 17)  (  4, 16, 17)  (  4, 16, 17)  (  4, 16, 17)  (  3, 17, 17)
  1  0.8894E-05  0  0.1120E-04  0  0.1123E-04  0  0.9419E-05  0  0.8044E-05
   (  5, 19, 14)  (  5, 19, 14)  (  5, 19, 14)  (  5, 19, 14)  (  5, 19, 14)
  0 -0.6034E-05  0 -0.5041E-05  0 -0.3784E-05  0 -0.2755E-05  0 -0.2050E-05
   (  3, 20, 11)  (  3, 20, 11)  (  3, 20, 11)  (  3, 20, 11)  (  2, 20, 11)
  0 -0.1693E-05  0 -0.1441E-05  0 -0.1307E-05  0 -0.9731E-06  0 -0.6789E-06
   (  2, 20, 11)  (  2, 20, 11)  (  2, 20, 11)  (  2, 20, 11)  (  2, 20, 11)
  0 -0.4745E-06  0 -0.3506E-06  0 -0.2968E-06  0 -0.2261E-06  0  0.1613E-06
   (  2, 20, 11)  (  5, 18, 15)  (  5, 18, 15)  (  2, 20, 11)  (  4, 18, 14)
  0 -0.1172E-06  0 -0.1092E-06  0 -0.8643E-07  0 -0.7639E-07  0 -0.5525E-07
   (  2, 20, 11)  (  2, 20, 11)  (  2, 20, 11)  (  2, 20, 11)  (  2, 20, 11)
  0 -0.3894E-07  0 -0.2721E-07  0 -0.1876E-07  0 -0.1540E-07  0 -0.1263E-07
   (  2, 20, 11)  (  2, 20, 11)  (  2, 20, 11)  (  2, 20, 11)  (  2, 20, 11)
  1  0.2981E-07  0  0.2060E-07  0  0.1568E-07  0  0.1234E-07  0  0.1067E-07
   (  3, 19, 14)  (  3, 19, 14)  (  3, 19, 14)  (  3, 20, 11)  (  3, 20, 11)
  0  0.8366E-08  1  0.8039E-08
   (  3, 20, 11)  (  3, 20, 11)



 OUTPUT CONTROL FOR STRESS PERIOD  106   TIME STEP    1
    SAVE HEAD FOR ALL LAYERS
    SAVE DRAWDOWN FOR ALL LAYERS
    SAVE BUDGET
    PRINT BUDGET
 UBDSV1 SAVING "         STORAGE" ON UNIT   9 AT TIME STEP  1, STRESS PERIOD 106
 UBDSV2 SAVING "   CONSTANT HEAD" ON UNIT   9 AT TIME STEP  1, STRESS PERIOD 106
 UBDSV1 SAVING "FLOW RIGHT FACE " ON UNIT   9 AT TIME STEP  1, STRESS PERIOD 106
 UBDSV1 SAVING "FLOW FRONT FACE " ON UNIT   9 AT TIME STEP  1, STRESS PERIOD 106
 UBDSV1 SAVING "FLOW LOWER FACE " ON UNIT   9 AT TIME STEP  1, STRESS PERIOD 106
 UBDSV3 SAVING "        RECHARGE" ON UNIT   9 AT TIME STEP  1, STRESS PERIOD 106

 HEAD WILL BE SAVED ON UNIT   37 AT END OF TIME STEP    1, STRESS PERIOD  106

 DRAWDOWN WILL BE SAVED ON UNIT   38 AT END OF TIME STEP    1, STRESS PERIOD  106
1
  VOLUMETRIC BUDGET FOR ENTIRE MODEL AT END OF TIME STEP    1, STRESS PERIOD 106
  ------------------------------------------------------------------------------

     CUMULATIVE VOLUMES      L**3       RATES FOR THIS TIME STEP      L**3/T
     ------------------                 ------------------------

           IN:                                      IN:
           ---                                      ---
             STORAGE =       14020.3125               STORAGE =       1.0802E-03
       CONSTANT HEAD =       28104.9941         CONSTANT HEAD =       8.3781E-05
            RECHARGE =        1250.7568              RECHARGE =       9.7813E-05

            TOTAL IN =       43376.0625              TOTAL IN =       1.2618E-03

          OUT:                                     OUT:
          ----                                     ----
             STORAGE =       13922.1309               STORAGE =       1.2368E-04
       CONSTANT HEAD =       29455.1250         CONSTANT HEAD =       1.1382E-03
            RECHARGE =           0.0000              RECHARGE =           0.0000

           TOTAL OUT =       43377.2578             TOTAL OUT =       1.2619E-03

            IN - OUT =          -1.1953              IN - OUT =      -6.8336E-08

 PERCENT DISCREPANCY =          -0.00     PERCENT DISCREPANCY =          -0.01






         TIME SUMMARY AT END OF TIME STEP    1 IN STRESS PERIOD  106
                    SECONDS     MINUTES      HOURS       DAYS        YEARS
                    -----------------------------------------------------------
   TIME STEP LENGTH  86400.      1440.0      24.000      1.0000     2.73785E-03
 STRESS PERIOD TIME  86400.      1440.0      24.000      1.0000     2.73785E-03
         TOTAL TIME 1.27872E+07 2.13120E+05  3552.0      148.00     0.40520    
1
1
                            STRESS PERIOD NO.  107, LENGTH =   86400.00    
                            -----------------------------------------------

                              NUMBER OF TIME STEPS =     1

                               MULTIPLIER FOR DELT =     1.000

                            INITIAL TIME STEP SIZE =   86400.00    

 REUSING RECH FROM LAST STRESS PERIOD

 CHD NO.   LAYER   ROW   COL    START HEAD        END HEAD         IFACE           
 ----------------------------------------------------------------------------------
      1      4      1      1       110.7           110.7           0.000    
      2      5      1      1       110.7           110.7           0.000    
      3      4      1      2       110.7           110.7           0.000    
      4      5      1      2       110.7           110.7           0.000    
      5      4      1      3       110.7           110.7           0.000    
      6      5      1      3       110.7           110.7           0.000    
      7      4      1      4       110.7           110.7           0.000    
      8      5      1      4       110.7           110.7           0.000    
      9      4      1      5       110.7           110.7           0.000    
     10      5      1      5       110.7           110.7           0.000    
     11      4      1      6       110.7           110.7           0.000    
     12      5      1      6       110.7           110.7           0.000    
     13      4      1      7       110.7           110.7           0.000    
     14      5      1      7       110.7           110.7           0.000    
     15      4      1      8       110.7           110.7           0.000    
     16      5      1      8       110.7           110.7           0.000    
     17      4      1      9       110.7           110.7           0.000    
     18      5      1      9       110.7           110.7           0.000    
     19      4      1     10       110.7           110.7           0.000    
     20      5      1     10       110.7           110.7           0.000    
     21      4      1     11       110.7           110.7           0.000    
     22      5      1     11       110.7           110.7           0.000    
     23      4      1     12       110.7           110.7           0.000    
     24      5      1     12       110.7           110.7           0.000    
     25      4      1     13       110.7           110.7           0.000    
     26      5      1     13       110.7           110.7           0.000    
     27      4      1     14       110.7           110.7           0.000    
     28      5      1     14       110.7           110.7           0.000    
     29      4      1     15       110.7           110.7           0.000    
     30      5      1     15       110.7           110.7           0.000    
     31      4      1     16       110.7           110.7           0.000    
     32      5      1     16       110.7           110.7           0.000    
     33      4      1     17       110.7           110.7           0.000    
     34      5      1     17       110.7           110.7           0.000    
     35      4     17     17       110.8           110.7           0.000    
     36      5     17     17       110.8           110.7           0.000    
     37      4     18     17       110.8           110.7           0.000    
     38      5     18     17       110.8           110.7           0.000    
     39      4     18     16       110.8           110.7           0.000    
     40      5     18     16       110.8           110.7           0.000    
     41      4     19     16       110.8           110.7           0.000    
     42      5     19     16       110.8           110.7           0.000    
     43      4     19     15       110.8           110.7           0.000    
     44      5     19     15       110.8           110.7           0.000    
     45      4     20     15       110.8           110.7           0.000    
     46      5     20     15       110.8           110.7           0.000    
     47      4     20     14       110.8           110.7           0.000    
     48      5     20     14       110.8           110.7           0.000    
     49      4     20     13       110.8           110.7           0.000    
     50      5     20     13       110.8           110.7           0.000    
     51      4     20     12       110.8           110.7           0.000    
     52      5     20     12       110.8           110.7           0.000    
     53      4     20     11       110.8           110.7           0.000    
     54      5     20     11       110.8           110.7           0.000    
     55      4     21     11       110.8           110.7           0.000    
     56      5     21     11       110.8           110.7           0.000    
     57      4     21     10       110.8           110.7           0.000    
     58      5     21     10       110.8           110.7           0.000    
     59      4     21      9       110.8           110.7           0.000    
     60      5     21      9       110.8           110.7           0.000    
     61      4     21      8       110.8           110.7           0.000    
     62      5     21      8       110.8           110.7           0.000    
     63      4     21      7       110.8           110.7           0.000    
     64      5     21      7       110.8           110.7           0.000    
     65      4     21      6       110.7           110.7           0.000    
     66      5     21      6       110.7           110.7           0.000    
     67      4     21      5       110.7           110.7           0.000    
     68      5     21      5       110.7           110.7           0.000    
     69      4     22      5       110.7           110.7           0.000    
     70      5     22      5       110.7           110.7           0.000    
     71      4     22      4       110.7           110.7           0.000    
     72      5     22      4       110.7           110.7           0.000    
     73      4     22      3       110.7           110.7           0.000    
     74      5     22      3       110.7           110.7           0.000    
     75      4     22      2       110.7           110.7           0.000    
     76      5     22      2       110.7           110.7           0.000    
     77      4     22      1       110.7           110.7           0.000    
     78      5     22      1       110.7           110.7           0.000    


     78 TIME-VARIANT SPECIFIED-HEAD CELLS

 SOLVING FOR HEAD 


     3 CALLS TO PCG ROUTINE FOR TIME STEP   1 IN STRESS PERIOD  107
    50 TOTAL ITERATIONS

 MAXIMUM HEAD CHANGE FOR EACH ITERATION (1 INDICATES THE FIRST INNER ITERATION):

    HEAD CHANGE    HEAD CHANGE    HEAD CHANGE    HEAD CHANGE    HEAD CHANGE 
   LAYER,ROW,COL  LAYER,ROW,COL  LAYER,ROW,COL  LAYER,ROW,COL  LAYER,ROW,COL
 ---------------------------------------------------------------------------
  1 -0.8780E-01  0  0.5687E-01  0 -0.4931E-01  0 -0.3902E-01  0 -0.5476E-01
   (  5, 21,  2)  (  5, 17,  1)  (  5, 16,  2)  (  5, 17,  1)  (  5, 19,  1)
  0 -0.3071E-01  0  0.2738E-01  0  0.2041E-01  0 -0.1745E-01  0 -0.1125E-01
   (  5, 17,  4)  (  5, 18,  1)  (  5, 17,  3)  (  5, 18,  1)  (  5, 19,  1)
  0 -0.7844E-02  0 -0.5632E-02  0  0.6898E-02  0 -0.3834E-02  0  0.2383E-02
   (  5, 14,  5)  (  5, 14,  1)  (  5, 16,  3)  (  5, 12,  5)  (  5, 15,  5)
  0 -0.1907E-02  0  0.1848E-02  0  0.1226E-02  0  0.1516E-02  0  0.7103E-03
   (  5, 18,  1)  (  5, 18,  2)  (  5, 16,  1)  (  5, 19,  3)  (  5, 17,  2)
  0 -0.4157E-03  0  0.4914E-03  0  0.3550E-03  0 -0.3502E-03  0 -0.2003E-03
   (  5, 16,  1)  (  5, 15,  1)  (  5, 19,  1)  (  5, 19,  2)  (  5, 18,  5)
  0 -0.1091E-03  0 -0.8006E-04  0 -0.6511E-04  0  0.6897E-04  0 -0.4139E-04
   (  5, 20,  3)  (  5, 19,  5)  (  5, 14,  2)  (  5, 14,  1)  (  5, 17,  1)
  1  0.4560E-04  0  0.5171E-04  0  0.4951E-04  0 -0.7581E-04  0  0.3212E-04
   (  5, 16,  1)  (  5,  6,  1)  (  5, 14,  2)  (  5,  6,  1)  (  5,  6,  1)
  0 -0.2671E-04  0 -0.1961E-04  0  0.1506E-04  0 -0.8333E-05  0 -0.5359E-05
   (  5, 17,  4)  (  5, 19,  1)  (  5, 14,  4)  (  5, 13,  3)  (  5, 15,  4)
  0  0.4566E-05  0 -0.5271E-05  0 -0.5118E-05  0  0.3011E-05  0 -0.1999E-05
   (  5, 15,  1)  (  5, 16,  2)  (  5, 20,  1)  (  5, 20,  1)  (  5, 16,  5)
  0 -0.1461E-05  0  0.1410E-05  0  0.1039E-05  0  0.9993E-06  1 -0.5165E-06
   (  5, 19,  1)  (  5, 17,  1)  (  5, 19,  3)  (  5, 15,  1)  (  5, 17,  1)

 MAXIMUM RESIDUAL FOR EACH ITERATION (1 INDICATES THE FIRST INNER ITERATION):

    RESIDUAL       RESIDUAL       RESIDUAL       RESIDUAL       RESIDUAL    
   LAYER,ROW,COL  LAYER,ROW,COL  LAYER,ROW,COL  LAYER,ROW,COL  LAYER,ROW,COL
 ---------------------------------------------------------------------------
  1  0.2484E-02  0  0.2258E-02  0  0.2049E-02  0  0.1768E-02  0  0.1425E-02
   (  3, 17, 17)  (  3, 17, 17)  (  3, 17, 17)  (  3, 17, 17)  (  3, 17, 17)
  0  0.1093E-02  0  0.7416E-03  0  0.4556E-03  0  0.2789E-03  0  0.1776E-03
   (  3, 17, 17)  (  3, 17, 17)  (  3, 17, 17)  (  3, 20, 11)  (  3, 20, 11)
  0  0.1187E-03  0  0.9650E-04  0  0.8525E-04  0  0.7005E-04  0  0.5474E-04
   (  3, 20, 11)  (  4, 16, 17)  (  4, 16, 17)  (  4, 16, 17)  (  4, 16, 17)
  0  0.4388E-04  0  0.3798E-04  0  0.2800E-04  0  0.2026E-04  0  0.1407E-04
   (  4, 16, 17)  (  4, 16, 17)  (  4, 16, 17)  (  4, 16, 17)  (  4, 16, 17)
  0  0.1303E-04  0  0.1009E-04  0  0.8328E-05  0  0.5685E-05  0  0.3547E-05
   (  4, 16, 17)  (  4, 16, 17)  (  4, 16, 17)  (  4, 16, 17)  (  4, 16, 17)
  0 -0.2238E-05  0 -0.1271E-05  0 -0.9716E-06  0 -0.6354E-06  0 -0.5661E-06
   (  3, 21,  6)  (  3, 21,  6)  (  3, 21,  6)  (  3, 21,  6)  (  3, 21,  6)
  1 -0.6333E-06  0 -0.5710E-06  0 -0.5261E-06  0 -0.3472E-06  0  0.2620E-06
   (  3, 21,  6)  (  3, 21,  6)  (  3, 21,  6)  (  3, 21,  6)  (  4, 16, 17)
  0  0.2322E-06  0  0.2011E-06  0  0.1742E-06  0  0.1340E-06  0  0.1129E-06
   (  4, 16, 17)  (  4, 16, 17)  (  4, 16, 17)  (  4, 16, 17)  (  4, 16, 17)
  0  0.1049E-06  0  0.8573E-07  0  0.6743E-07  0  0.5069E-07  0  0.3584E-07
   (  4, 16, 17)  (  4, 16, 17)  (  4, 16, 17)  (  4, 16, 17)  (  4, 16, 17)
  0  0.3117E-07  0  0.2470E-07  0  0.1951E-07  0  0.1207E-07  1  0.1175E-07
   (  4, 16, 17)  (  4, 16, 17)  (  4, 16, 17)  (  4, 16, 17)  (  4, 16, 17)



 OUTPUT CONTROL FOR STRESS PERIOD  107   TIME STEP    1
    SAVE HEAD FOR ALL LAYERS
    SAVE DRAWDOWN FOR ALL LAYERS
    SAVE BUDGET
    PRINT BUDGET
 UBDSV1 SAVING "         STORAGE" ON UNIT   9 AT TIME STEP  1, STRESS PERIOD 107
 UBDSV2 SAVING "   CONSTANT HEAD" ON UNIT   9 AT TIME STEP  1, STRESS PERIOD 107
 UBDSV1 SAVING "FLOW RIGHT FACE " ON UNIT   9 AT TIME STEP  1, STRESS PERIOD 107
 UBDSV1 SAVING "FLOW FRONT FACE " ON UNIT   9 AT TIME STEP  1, STRESS PERIOD 107
 UBDSV1 SAVING "FLOW LOWER FACE " ON UNIT   9 AT TIME STEP  1, STRESS PERIOD 107
 UBDSV3 SAVING "        RECHARGE" ON UNIT   9 AT TIME STEP  1, STRESS PERIOD 107

 HEAD WILL BE SAVED ON UNIT   37 AT END OF TIME STEP    1, STRESS PERIOD  107

 DRAWDOWN WILL BE SAVED ON UNIT   38 AT END OF TIME STEP    1, STRESS PERIOD  107
1
  VOLUMETRIC BUDGET FOR ENTIRE MODEL AT END OF TIME STEP    1, STRESS PERIOD 107
  ------------------------------------------------------------------------------

     CUMULATIVE VOLUMES      L**3       RATES FOR THIS TIME STEP      L**3/T
     ------------------                 ------------------------

           IN:                                      IN:
           ---                                      ---
             STORAGE =       14102.7324               STORAGE =       9.5393E-04
       CONSTANT HEAD =       28106.5430         CONSTANT HEAD =       1.7922E-05
            RECHARGE =        1259.2079              RECHARGE =       9.7813E-05

            TOTAL IN =       43468.4805              TOTAL IN =       1.0697E-03

          OUT:                                     OUT:
          ----                                     ----
             STORAGE =       13922.1309               STORAGE =           0.0000
       CONSTANT HEAD =       29547.5527         CONSTANT HEAD =       1.0698E-03
            RECHARGE =           0.0000              RECHARGE =           0.0000

           TOTAL OUT =       43469.6836             TOTAL OUT =       1.0698E-03

            IN - OUT =          -1.2031              IN - OUT =      -9.7556E-08

 PERCENT DISCREPANCY =          -0.00     PERCENT DISCREPANCY =          -0.01






         TIME SUMMARY AT END OF TIME STEP    1 IN STRESS PERIOD  107
                    SECONDS     MINUTES      HOURS       DAYS        YEARS
                    -----------------------------------------------------------
   TIME STEP LENGTH  86400.      1440.0      24.000      1.0000     2.73785E-03
 STRESS PERIOD TIME  86400.      1440.0      24.000      1.0000     2.73785E-03
         TOTAL TIME 1.28736E+07 2.14560E+05  3576.0      149.00     0.40794    
1
1
                            STRESS PERIOD NO.  108, LENGTH =   86400.00    
                            -----------------------------------------------

                              NUMBER OF TIME STEPS =     1

                               MULTIPLIER FOR DELT =     1.000

                            INITIAL TIME STEP SIZE =   86400.00    

 REUSING RECH FROM LAST STRESS PERIOD

 CHD NO.   LAYER   ROW   COL    START HEAD        END HEAD         IFACE           
 ----------------------------------------------------------------------------------
      1      4      1      1       110.7           110.6           0.000    
      2      5      1      1       110.7           110.6           0.000    
      3      4      1      2       110.7           110.6           0.000    
      4      5      1      2       110.7           110.6           0.000    
      5      4      1      3       110.7           110.6           0.000    
      6      5      1      3       110.7           110.6           0.000    
      7      4      1      4       110.7           110.6           0.000    
      8      5      1      4       110.7           110.6           0.000    
      9      4      1      5       110.7           110.6           0.000    
     10      5      1      5       110.7           110.6           0.000    
     11      4      1      6       110.7           110.6           0.000    
     12      5      1      6       110.7           110.6           0.000    
     13      4      1      7       110.7           110.6           0.000    
     14      5      1      7       110.7           110.6           0.000    
     15      4      1      8       110.7           110.6           0.000    
     16      5      1      8       110.7           110.6           0.000    
     17      4      1      9       110.7           110.6           0.000    
     18      5      1      9       110.7           110.6           0.000    
     19      4      1     10       110.7           110.6           0.000    
     20      5      1     10       110.7           110.6           0.000    
     21      4      1     11       110.7           110.6           0.000    
     22      5      1     11       110.7           110.6           0.000    
     23      4      1     12       110.7           110.6           0.000    
     24      5      1     12       110.7           110.6           0.000    
     25      4      1     13       110.7           110.6           0.000    
     26      5      1     13       110.7           110.6           0.000    
     27      4      1     14       110.7           110.6           0.000    
     28      5      1     14       110.7           110.6           0.000    
     29      4      1     15       110.7           110.6           0.000    
     30      5      1     15       110.7           110.6           0.000    
     31      4      1     16       110.7           110.6           0.000    
     32      5      1     16       110.7           110.6           0.000    
     33      4      1     17       110.7           110.6           0.000    
     34      5      1     17       110.7           110.6           0.000    
     35      4     17     17       110.7           110.5           0.000    
     36      5     17     17       110.7           110.5           0.000    
     37      4     18     17       110.7           110.5           0.000    
     38      5     18     17       110.7           110.5           0.000    
     39      4     18     16       110.7           110.5           0.000    
     40      5     18     16       110.7           110.5           0.000    
     41      4     19     16       110.7           110.5           0.000    
     42      5     19     16       110.7           110.5           0.000    
     43      4     19     15       110.7           110.5           0.000    
     44      5     19     15       110.7           110.5           0.000    
     45      4     20     15       110.7           110.5           0.000    
     46      5     20     15       110.7           110.5           0.000    
     47      4     20     14       110.7           110.5           0.000    
     48      5     20     14       110.7           110.5           0.000    
     49      4     20     13       110.7           110.5           0.000    
     50      5     20     13       110.7           110.5           0.000    
     51      4     20     12       110.7           110.5           0.000    
     52      5     20     12       110.7           110.5           0.000    
     53      4     20     11       110.7           110.5           0.000    
     54      5     20     11       110.7           110.5           0.000    
     55      4     21     11       110.7           110.5           0.000    
     56      5     21     11       110.7           110.5           0.000    
     57      4     21     10       110.7           110.5           0.000    
     58      5     21     10       110.7           110.5           0.000    
     59      4     21      9       110.7           110.5           0.000    
     60      5     21      9       110.7           110.5           0.000    
     61      4     21      8       110.7           110.5           0.000    
     62      5     21      8       110.7           110.5           0.000    
     63      4     21      7       110.7           110.5           0.000    
     64      5     21      7       110.7           110.5           0.000    
     65      4     21      6       110.7           110.5           0.000    
     66      5     21      6       110.7           110.5           0.000    
     67      4     21      5       110.7           110.5           0.000    
     68      5     21      5       110.7           110.5           0.000    
     69      4     22      5       110.7           110.5           0.000    
     70      5     22      5       110.7           110.5           0.000    
     71      4     22      4       110.7           110.5           0.000    
     72      5     22      4       110.7           110.5           0.000    
     73      4     22      3       110.7           110.5           0.000    
     74      5     22      3       110.7           110.5           0.000    
     75      4     22      2       110.7           110.5           0.000    
     76      5     22      2       110.7           110.5           0.000    
     77      4     22      1       110.7           110.5           0.000    
     78      5     22      1       110.7           110.5           0.000    


     78 TIME-VARIANT SPECIFIED-HEAD CELLS

 SOLVING FOR HEAD 


     4 CALLS TO PCG ROUTINE FOR TIME STEP   1 IN STRESS PERIOD  108
    66 TOTAL ITERATIONS

 MAXIMUM HEAD CHANGE FOR EACH ITERATION (1 INDICATES THE FIRST INNER ITERATION):

    HEAD CHANGE    HEAD CHANGE    HEAD CHANGE    HEAD CHANGE    HEAD CHANGE 
   LAYER,ROW,COL  LAYER,ROW,COL  LAYER,ROW,COL  LAYER,ROW,COL  LAYER,ROW,COL
 ---------------------------------------------------------------------------
  1 -0.4944      0  0.3265      0 -0.2853      0 -0.2258      0 -0.3093    
   (  5, 21,  2)  (  5, 17,  1)  (  5, 16,  2)  (  5, 17,  1)  (  5, 19,  1)
  0 -0.1787      0  0.1604      0  0.1180      0 -0.1048      0  0.6185E-01
   (  5, 20,  1)  (  5, 18,  1)  (  5, 19,  1)  (  5, 18,  1)  (  5, 18,  4)
  0 -0.5299E-01  0  0.3856E-01  0 -0.3076E-01  0 -0.2252E-01  0 -0.1367E-01
   (  5, 17,  3)  (  5, 16,  3)  (  5, 15,  1)  (  5, 12,  5)  (  5, 19,  3)
  0 -0.9892E-02  0  0.8155E-02  0  0.6190E-02  0  0.8974E-02  0  0.3329E-02
   (  5, 18,  1)  (  5, 18,  2)  (  5, 16,  3)  (  5, 19,  3)  (  5, 17,  2)
  0 -0.2994E-02  0  0.2898E-02  0  0.1930E-02  0 -0.1989E-02  0 -0.1073E-02
   (  5, 16,  1)  (  5, 17,  2)  (  5, 19,  1)  (  5, 19,  2)  (  5, 18,  5)
  0 -0.7088E-03  0 -0.5928E-03  0 -0.3624E-03  0 -0.3327E-03  0  0.2096E-03
   (  5, 20,  3)  (  5, 14,  2)  (  5, 18,  1)  (  5,  6,  1)  (  5, 15,  1)
  1 -0.5183E-03  0 -0.1081E-02  0  0.7632E-03  0 -0.6005E-03  0  0.4075E-03
   (  5, 15,  1)  (  2, 19, 14)  (  5, 20,  1)  (  5, 19,  2)  (  5, 18,  3)
  0  0.2298E-03  0 -0.2589E-03  0  0.1177E-03  0 -0.1153E-03  0 -0.7123E-04
   (  5, 13,  3)  (  5, 13,  4)  (  5, 11,  4)  (  5, 12,  5)  (  5, 14,  3)
  0  0.6364E-04  0 -0.5649E-04  0 -0.6979E-04  0  0.4323E-04  0  0.3357E-04
   (  5, 16,  4)  (  5, 16,  1)  (  5, 20,  1)  (  5, 20,  1)  (  5, 19,  4)
  0 -0.2032E-04  0 -0.1465E-04  0  0.1266E-04  0  0.9698E-05  0 -0.6681E-05
   (  5, 20,  1)  (  5, 19,  1)  (  5, 17,  1)  (  5, 15,  1)  (  5, 19,  3)
  0  0.4929E-05  0 -0.4791E-05  0 -0.2804E-05  0 -0.2419E-05  0  0.1516E-05
   (  5, 16,  1)  (  5, 15,  1)  (  5, 19,  1)  (  5, 17,  3)  (  5, 18,  5)
  0 -0.1084E-05  0  0.8169E-06  1 -0.8225E-05  0  0.4482E-05  0 -0.4517E-05
   (  2, 19,  4)  (  5, 18,  4)  (  2, 19, 14)  (  5, 13,  1)  (  5, 16,  2)
  0  0.3305E-05  0  0.2061E-05  0  0.1340E-05  0 -0.1121E-05  0  0.5249E-06
   (  5, 18,  1)  (  5, 17,  4)  (  5, 20,  2)  (  5, 19,  1)  (  5, 20,  1)
  1 -0.4199E-06
   (  5, 20,  1)

 MAXIMUM RESIDUAL FOR EACH ITERATION (1 INDICATES THE FIRST INNER ITERATION):

    RESIDUAL       RESIDUAL       RESIDUAL       RESIDUAL       RESIDUAL    
   LAYER,ROW,COL  LAYER,ROW,COL  LAYER,ROW,COL  LAYER,ROW,COL  LAYER,ROW,COL
 ---------------------------------------------------------------------------
  1  0.1462E-01  0  0.1322E-01  0  0.1192E-01  0  0.1018E-01  0  0.8149E-02
   (  3, 17, 17)  (  3, 17, 17)  (  3, 17, 17)  (  3, 17, 17)  (  3, 17, 17)
  0  0.6163E-02  0  0.4168E-02  0  0.2548E-02  0  0.1514E-02  0  0.9576E-03
   (  3, 17, 17)  (  3, 17, 17)  (  3, 17, 17)  (  3, 20, 11)  (  3, 20, 11)
  0  0.6327E-03  0  0.5600E-03  0  0.4919E-03  0  0.4011E-03  0  0.3134E-03
   (  3, 20, 11)  (  4, 16, 17)  (  4, 16, 17)  (  4, 16, 17)  (  4, 16, 17)
  0  0.2393E-03  0  0.2151E-03  0  0.1613E-03  0  0.1153E-03  0  0.7956E-04
   (  4, 16, 17)  (  4, 16, 17)  (  4, 16, 17)  (  4, 16, 17)  (  4, 16, 17)
  0  0.6856E-04  0  0.5420E-04  0  0.4530E-04  0  0.3259E-04  0  0.2036E-04
   (  4, 16, 17)  (  4, 16, 17)  (  4, 16, 17)  (  4, 16, 17)  (  4, 16, 17)
  0 -0.1225E-04  0 -0.7365E-05  0 -0.6178E-05  0 -0.3074E-05  0  0.2557E-05
   (  3, 21,  6)  (  3, 21,  6)  (  3, 21,  6)  (  3, 21,  6)  (  3, 17, 17)
  1  0.7129E-05  0  0.3517E-05  0 -0.2619E-05  0 -0.2386E-05  0 -0.2112E-05
   (  2, 17, 17)  (  2, 17, 17)  (  3, 17, 17)  (  3, 17, 17)  (  3, 17, 17)
  0 -0.1777E-05  0  0.1435E-05  0  0.1232E-05  0  0.1070E-05  0  0.9031E-06
   (  3, 17, 17)  (  2, 17, 17)  (  2, 17, 17)  (  2, 17, 17)  (  2, 17, 17)
  0  0.7975E-06  0  0.7398E-06  0  0.5632E-06  0  0.3930E-06  0  0.2760E-06
   (  2, 17, 17)  (  2, 17, 17)  (  2, 17, 17)  (  2, 17, 17)  (  2, 17, 17)
  0  0.1968E-06  0  0.1613E-06  0  0.1259E-06  0  0.8696E-07  0  0.6551E-07
   (  2, 17, 17)  (  2, 17, 17)  (  2, 17, 17)  (  2, 17, 17)  (  2, 17, 17)
  0  0.6001E-07  0  0.4201E-07  0  0.3704E-07  0  0.2809E-07  0  0.2086E-07
   (  2, 17, 17)  (  2, 17, 17)  (  2, 17, 17)  (  2, 17, 17)  (  2, 17, 17)
  0  0.1455E-07  0  0.9563E-08  1 -0.2058E-07  0 -0.1552E-07  0 -0.1368E-07
   (  2, 17, 17)  (  2, 17, 17)  (  5, 14,  1)  (  3, 19, 14)  (  3, 19, 14)
  0 -0.1210E-07  0 -0.1009E-07  0 -0.7844E-08  0 -0.5917E-08  0 -0.3815E-08
   (  3, 19, 14)  (  3, 19, 14)  (  3, 19, 14)  (  3, 19, 14)  (  3, 19, 14)
  1 -0.3672E-08
   (  3, 19, 14)



 OUTPUT CONTROL FOR STRESS PERIOD  108   TIME STEP    1
    SAVE HEAD FOR ALL LAYERS
    SAVE DRAWDOWN FOR ALL LAYERS
    SAVE BUDGET
    PRINT BUDGET
 UBDSV1 SAVING "         STORAGE" ON UNIT   9 AT TIME STEP  1, STRESS PERIOD 108
 UBDSV2 SAVING "   CONSTANT HEAD" ON UNIT   9 AT TIME STEP  1, STRESS PERIOD 108
 UBDSV1 SAVING "FLOW RIGHT FACE " ON UNIT   9 AT TIME STEP  1, STRESS PERIOD 108
 UBDSV1 SAVING "FLOW FRONT FACE " ON UNIT   9 AT TIME STEP  1, STRESS PERIOD 108
 UBDSV1 SAVING "FLOW LOWER FACE " ON UNIT   9 AT TIME STEP  1, STRESS PERIOD 108
 UBDSV3 SAVING "        RECHARGE" ON UNIT   9 AT TIME STEP  1, STRESS PERIOD 108

 HEAD WILL BE SAVED ON UNIT   37 AT END OF TIME STEP    1, STRESS PERIOD  108

 DRAWDOWN WILL BE SAVED ON UNIT   38 AT END OF TIME STEP    1, STRESS PERIOD  108
1
  VOLUMETRIC BUDGET FOR ENTIRE MODEL AT END OF TIME STEP    1, STRESS PERIOD 108
  ------------------------------------------------------------------------------

     CUMULATIVE VOLUMES      L**3       RATES FOR THIS TIME STEP      L**3/T
     ------------------                 ------------------------

           IN:                                      IN:
           ---                                      ---
             STORAGE =       14535.3516               STORAGE =       5.0072E-03
       CONSTANT HEAD =       28106.5430         CONSTANT HEAD =           0.0000
            RECHARGE =        1267.6589              RECHARGE =       9.7813E-05

            TOTAL IN =       43909.5547              TOTAL IN =       5.1050E-03

          OUT:                                     OUT:
          ----                                     ----
             STORAGE =       13922.1309               STORAGE =           0.0000
       CONSTANT HEAD =       29988.6328         CONSTANT HEAD =       5.1051E-03
            RECHARGE =           0.0000              RECHARGE =           0.0000

           TOTAL OUT =       43910.7656             TOTAL OUT =       5.1051E-03

            IN - OUT =          -1.2109              IN - OUT =      -1.0338E-07

 PERCENT DISCREPANCY =          -0.00     PERCENT DISCREPANCY =          -0.00






         TIME SUMMARY AT END OF TIME STEP    1 IN STRESS PERIOD  108
                    SECONDS     MINUTES      HOURS       DAYS        YEARS
                    -----------------------------------------------------------
   TIME STEP LENGTH  86400.      1440.0      24.000      1.0000     2.73785E-03
 STRESS PERIOD TIME  86400.      1440.0      24.000      1.0000     2.73785E-03
         TOTAL TIME 1.29600E+07 2.16000E+05  3600.0      150.00     0.41068    
1
1
                            STRESS PERIOD NO.  109, LENGTH =   172800.0    
                            -----------------------------------------------

                              NUMBER OF TIME STEPS =     2

                               MULTIPLIER FOR DELT =     1.000

                            INITIAL TIME STEP SIZE =   86400.00    

 REUSING RECH FROM LAST STRESS PERIOD

 CHD NO.   LAYER   ROW   COL    START HEAD        END HEAD         IFACE           
 ----------------------------------------------------------------------------------
      1      4      1      1       110.6           110.5           0.000    
      2      5      1      1       110.6           110.5           0.000    
      3      4      1      2       110.6           110.5           0.000    
      4      5      1      2       110.6           110.5           0.000    
      5      4      1      3       110.6           110.5           0.000    
      6      5      1      3       110.6           110.5           0.000    
      7      4      1      4       110.6           110.5           0.000    
      8      5      1      4       110.6           110.5           0.000    
      9      4      1      5       110.6           110.5           0.000    
     10      5      1      5       110.6           110.5           0.000    
     11      4      1      6       110.6           110.5           0.000    
     12      5      1      6       110.6           110.5           0.000    
     13      4      1      7       110.6           110.5           0.000    
     14      5      1      7       110.6           110.5           0.000    
     15      4      1      8       110.6           110.5           0.000    
     16      5      1      8       110.6           110.5           0.000    
     17      4      1      9       110.6           110.5           0.000    
     18      5      1      9       110.6           110.5           0.000    
     19      4      1     10       110.6           110.5           0.000    
     20      5      1     10       110.6           110.5           0.000    
     21      4      1     11       110.6           110.5           0.000    
     22      5      1     11       110.6           110.5           0.000    
     23      4      1     12       110.6           110.5           0.000    
     24      5      1     12       110.6           110.5           0.000    
     25      4      1     13       110.6           110.5           0.000    
     26      5      1     13       110.6           110.5           0.000    
     27      4      1     14       110.6           110.5           0.000    
     28      5      1     14       110.6           110.5           0.000    
     29      4      1     15       110.6           110.5           0.000    
     30      5      1     15       110.6           110.5           0.000    
     31      4      1     16       110.6           110.5           0.000    
     32      5      1     16       110.6           110.5           0.000    
     33      4      1     17       110.6           110.5           0.000    
     34      5      1     17       110.6           110.5           0.000    
     35      4     17     17       110.5           110.3           0.000    
     36      5     17     17       110.5           110.3           0.000    
     37      4     18     17       110.5           110.3           0.000    
     38      5     18     17       110.5           110.3           0.000    
     39      4     18     16       110.5           110.3           0.000    
     40      5     18     16       110.5           110.3           0.000    
     41      4     19     16       110.5           110.3           0.000    
     42      5     19     16       110.5           110.3           0.000    
     43      4     19     15       110.5           110.3           0.000    
     44      5     19     15       110.5           110.3           0.000    
     45      4     20     15       110.5           110.3           0.000    
     46      5     20     15       110.5           110.3           0.000    
     47      4     20     14       110.5           110.3           0.000    
     48      5     20     14       110.5           110.3           0.000    
     49      4     20     13       110.5           110.3           0.000    
     50      5     20     13       110.5           110.3           0.000    
     51      4     20     12       110.5           110.3           0.000    
     52      5     20     12       110.5           110.3           0.000    
     53      4     20     11       110.5           110.3           0.000    
     54      5     20     11       110.5           110.3           0.000    
     55      4     21     11       110.5           110.3           0.000    
     56      5     21     11       110.5           110.3           0.000    
     57      4     21     10       110.5           110.3           0.000    
     58      5     21     10       110.5           110.3           0.000    
     59      4     21      9       110.5           110.3           0.000    
     60      5     21      9       110.5           110.3           0.000    
     61      4     21      8       110.5           110.3           0.000    
     62      5     21      8       110.5           110.3           0.000    
     63      4     21      7       110.5           110.3           0.000    
     64      5     21      7       110.5           110.3           0.000    
     65      4     21      6       110.5           110.2           0.000    
     66      5     21      6       110.5           110.2           0.000    
     67      4     21      5       110.5           110.2           0.000    
     68      5     21      5       110.5           110.2           0.000    
     69      4     22      5       110.5           110.2           0.000    
     70      5     22      5       110.5           110.2           0.000    
     71      4     22      4       110.5           110.2           0.000    
     72      5     22      4       110.5           110.2           0.000    
     73      4     22      3       110.5           110.2           0.000    
     74      5     22      3       110.5           110.2           0.000    
     75      4     22      2       110.5           110.2           0.000    
     76      5     22      2       110.5           110.2           0.000    
     77      4     22      1       110.5           110.2           0.000    
     78      5     22      1       110.5           110.2           0.000    


     78 TIME-VARIANT SPECIFIED-HEAD CELLS

 SOLVING FOR HEAD 


     4 CALLS TO PCG ROUTINE FOR TIME STEP   1 IN STRESS PERIOD  109
    60 TOTAL ITERATIONS

 MAXIMUM HEAD CHANGE FOR EACH ITERATION (1 INDICATES THE FIRST INNER ITERATION):

    HEAD CHANGE    HEAD CHANGE    HEAD CHANGE    HEAD CHANGE    HEAD CHANGE 
   LAYER,ROW,COL  LAYER,ROW,COL  LAYER,ROW,COL  LAYER,ROW,COL  LAYER,ROW,COL
 ---------------------------------------------------------------------------
  1 -0.2574      0  0.1663      0 -0.1469      0 -0.1155      0 -0.1530    
   (  5, 21,  2)  (  5, 17,  1)  (  5, 16,  2)  (  5, 17,  1)  (  5, 19,  1)
  0 -0.8928E-01  0  0.7944E-01  0 -0.5777E-01  0 -0.5246E-01  0 -0.3143E-01
   (  5, 20,  1)  (  5, 18,  1)  (  5, 17,  1)  (  5, 18,  1)  (  5, 19,  1)
  0 -0.2122E-01  0 -0.1445E-01  0  0.2060E-01  0 -0.1083E-01  0 -0.7252E-02
   (  5, 14,  5)  (  5, 17,  2)  (  5, 16,  3)  (  5, 12,  5)  (  5, 19,  3)
  0  0.7295E-02  0 -0.4048E-02  0  0.3916E-02  0  0.4192E-02  0  0.1947E-02
   (  5, 18,  2)  (  5, 18,  1)  (  5, 16,  1)  (  5, 19,  3)  (  5, 17,  2)
  0 -0.1158E-02  0  0.1144E-02  0  0.9401E-03  0 -0.9696E-03  0 -0.5407E-03
   (  5, 16,  1)  (  5, 15,  1)  (  5, 19,  1)  (  5, 19,  2)  (  5, 18,  5)
  0 -0.3059E-03  0 -0.2039E-03  0  0.1707E-03  0 -0.1913E-03  0 -0.1050E-03
   (  5, 20,  3)  (  5, 19,  5)  (  5, 18,  1)  (  5, 19,  2)  (  5, 17,  1)
  1  0.3482E-03  0  0.6303E-03  0  0.3785E-03  0 -0.3668E-03  0 -0.1781E-03
   (  5, 16,  1)  (  5,  6,  1)  (  5, 13,  2)  (  5,  6,  1)  (  5, 11,  1)
  0  0.1389E-03  0 -0.1308E-03  0  0.7172E-04  0 -0.5705E-04  0  0.4347E-04
   (  5, 18,  1)  (  5, 14,  4)  (  5, 20,  1)  (  5, 16,  4)  (  5, 20,  1)
  0 -0.2581E-04  0  0.3785E-04  0 -0.2444E-04  0 -0.2229E-04  0  0.1774E-04
   (  5, 16,  2)  (  5, 18,  2)  (  5, 18,  4)  (  5, 19,  2)  (  5, 19,  3)
  0 -0.1072E-04  0  0.1109E-04  0 -0.5373E-05  0 -0.3773E-05  0  0.4959E-05
   (  5, 20,  1)  (  5, 18,  1)  (  5, 15,  5)  (  5, 18,  1)  (  5, 15,  1)
  0 -0.2521E-05  0  0.2206E-05  0 -0.1808E-05  0 -0.9676E-06  1 -0.1249E-05
   (  5, 16,  2)  (  5, 19,  1)  (  5, 20,  1)  (  5, 17,  3)  (  5, 18,  1)
  0  0.1824E-05  0  0.1783E-05  0 -0.1398E-05  0  0.9808E-06  1 -0.6154E-06
   (  5, 20,  1)  (  5, 16,  1)  (  5, 15,  1)  (  5, 21,  3)  (  5, 14,  3)

 MAXIMUM RESIDUAL FOR EACH ITERATION (1 INDICATES THE FIRST INNER ITERATION):

    RESIDUAL       RESIDUAL       RESIDUAL       RESIDUAL       RESIDUAL    
   LAYER,ROW,COL  LAYER,ROW,COL  LAYER,ROW,COL  LAYER,ROW,COL  LAYER,ROW,COL
 ---------------------------------------------------------------------------
  1  0.6579E-02  0  0.5923E-02  0  0.5319E-02  0  0.4541E-02  0  0.3637E-02
   (  3, 17, 17)  (  3, 17, 17)  (  3, 17, 17)  (  3, 17, 17)  (  3, 17, 17)
  0  0.2746E-02  0  0.1830E-02  0  0.1083E-02  0  0.6198E-03  0  0.3809E-03
   (  3, 17, 17)  (  3, 17, 17)  (  3, 17, 17)  (  3, 20, 11)  (  3, 20, 11)
  0 -0.2768E-03  0  0.2598E-03  0  0.2154E-03  0  0.1746E-03  0  0.1367E-03
   (  4, 21,  2)  (  4, 16, 17)  (  4, 16, 17)  (  4, 16, 17)  (  4, 16, 17)
  0  0.1054E-03  0  0.9360E-04  0  0.6920E-04  0  0.4931E-04  0  0.3358E-04
   (  4, 16, 17)  (  4, 16, 17)  (  4, 16, 17)  (  4, 16, 17)  (  4, 16, 17)
  0  0.3124E-04  0 -0.2282E-04  0 -0.1974E-04  0 -0.1498E-04  0 -0.9758E-05
   (  4, 16, 17)  (  3, 21,  6)  (  3, 21,  6)  (  3, 21,  6)  (  3, 21,  6)
  0 -0.6066E-05  0 -0.3330E-05  0 -0.2763E-05  0 -0.1467E-05  0 -0.1203E-05
   (  3, 21,  6)  (  3, 21,  6)  (  3, 21,  6)  (  3, 21,  6)  (  3, 21,  6)
  1  0.2356E-05  0  0.3596E-05  0  0.2208E-05  0  0.9842E-06  0  0.8291E-06
   (  2, 17, 17)  (  5,  6,  1)  (  5,  6,  1)  (  5, 15, 17)  (  5, 16, 17)
  0 -0.7060E-06  0 -0.5825E-06  0 -0.4422E-06  0  0.3822E-06  0  0.3046E-06
   (  3, 17, 17)  (  3, 17, 17)  (  3, 17, 17)  (  4, 16, 17)  (  4, 16, 17)
  0  0.2817E-06  0  0.2367E-06  0  0.1888E-06  0  0.1351E-06  0  0.9533E-07
   (  4, 16, 17)  (  2, 17, 17)  (  2, 17, 17)  (  2, 17, 17)  (  2, 17, 17)
  0  0.7751E-07  0  0.6231E-07  0  0.4300E-07  0  0.3038E-07  0 -0.2635E-07
   (  2, 17, 17)  (  2, 17, 17)  (  2, 17, 17)  (  2, 17, 17)  (  4, 20,  2)
  0 -0.2395E-07  0 -0.1645E-07  0  0.1158E-07  0  0.9823E-08  1  0.1114E-07
   (  4, 20,  2)  (  4, 20,  2)  (  2, 17, 17)  (  2, 17, 17)  (  2, 17, 17)
  0  0.9648E-08  0  0.7013E-08  0  0.5615E-08  0  0.3689E-08  1  0.3584E-08
   (  2, 17, 17)  (  2, 17, 17)  (  2, 17, 17)  (  2, 17, 17)  (  2, 17, 17)



 OUTPUT CONTROL FOR STRESS PERIOD  109   TIME STEP    1
    SAVE HEAD FOR ALL LAYERS
    SAVE DRAWDOWN FOR ALL LAYERS
    SAVE BUDGET
    PRINT BUDGET
 UBDSV1 SAVING "         STORAGE" ON UNIT   9 AT TIME STEP  1, STRESS PERIOD 109
 UBDSV2 SAVING "   CONSTANT HEAD" ON UNIT   9 AT TIME STEP  1, STRESS PERIOD 109
 UBDSV1 SAVING "FLOW RIGHT FACE " ON UNIT   9 AT TIME STEP  1, STRESS PERIOD 109
 UBDSV1 SAVING "FLOW FRONT FACE " ON UNIT   9 AT TIME STEP  1, STRESS PERIOD 109
 UBDSV1 SAVING "FLOW LOWER FACE " ON UNIT   9 AT TIME STEP  1, STRESS PERIOD 109
 UBDSV3 SAVING "        RECHARGE" ON UNIT   9 AT TIME STEP  1, STRESS PERIOD 109

 HEAD WILL BE SAVED ON UNIT   37 AT END OF TIME STEP    1, STRESS PERIOD  109

 DRAWDOWN WILL BE SAVED ON UNIT   38 AT END OF TIME STEP    1, STRESS PERIOD  109
1
  VOLUMETRIC BUDGET FOR ENTIRE MODEL AT END OF TIME STEP    1, STRESS PERIOD 109
  ------------------------------------------------------------------------------

     CUMULATIVE VOLUMES      L**3       RATES FOR THIS TIME STEP      L**3/T
     ------------------                 ------------------------

           IN:                                      IN:
           ---                                      ---
             STORAGE =       14899.1260               STORAGE =       4.2104E-03
       CONSTANT HEAD =       28125.8066         CONSTANT HEAD =       2.2295E-04
            RECHARGE =        1276.1100              RECHARGE =       9.7813E-05

            TOTAL IN =       44301.0430              TOTAL IN =       4.5311E-03

          OUT:                                     OUT:
          ----                                     ----
             STORAGE =       13922.1309               STORAGE =           0.0000
       CONSTANT HEAD =       30380.1328         CONSTANT HEAD =       4.5313E-03
            RECHARGE =           0.0000              RECHARGE =           0.0000

           TOTAL OUT =       44302.2656             TOTAL OUT =       4.5313E-03

            IN - OUT =          -1.2227              IN - OUT =      -1.3364E-07

 PERCENT DISCREPANCY =          -0.00     PERCENT DISCREPANCY =          -0.00






         TIME SUMMARY AT END OF TIME STEP    1 IN STRESS PERIOD  109
                    SECONDS     MINUTES      HOURS       DAYS        YEARS
                    -----------------------------------------------------------
   TIME STEP LENGTH  86400.      1440.0      24.000      1.0000     2.73785E-03
 STRESS PERIOD TIME  86400.      1440.0      24.000      1.0000     2.73785E-03
         TOTAL TIME 1.30464E+07 2.17440E+05  3624.0      151.00     0.41342    
1

 SOLVING FOR HEAD 
     4 CALLS TO PCG ROUTINE FOR TIME STEP   2 IN STRESS PERIOD  109
    62 TOTAL ITERATIONS

 MAXIMUM HEAD CHANGE FOR EACH ITERATION (1 INDICATES THE FIRST INNER ITERATION):

    HEAD CHANGE    HEAD CHANGE    HEAD CHANGE    HEAD CHANGE    HEAD CHANGE 
   LAYER,ROW,COL  LAYER,ROW,COL  LAYER,ROW,COL  LAYER,ROW,COL  LAYER,ROW,COL
 ---------------------------------------------------------------------------
  1 -0.2532      0  0.1647      0 -0.1461      0 -0.1146      0 -0.1503    
   (  5, 21,  2)  (  5, 17,  1)  (  5, 16,  2)  (  5, 17,  1)  (  5, 19,  1)
  0 -0.9096E-01  0  0.7884E-01  0  0.5698E-01  0 -0.5269E-01  0 -0.3036E-01
   (  5, 20,  1)  (  5, 18,  1)  (  5, 19,  1)  (  5, 18,  1)  (  5, 19,  1)
  0 -0.2012E-01  0 -0.1419E-01  0  0.1993E-01  0 -0.1080E-01  0 -0.7200E-02
   (  5, 14,  5)  (  5, 17,  2)  (  5, 16,  3)  (  5, 12,  5)  (  5, 19,  3)
  0  0.7278E-02  0 -0.4341E-02  0  0.3839E-02  0  0.4198E-02  0  0.2434E-02
   (  5, 18,  2)  (  5, 18,  1)  (  5, 16,  1)  (  5, 19,  3)  (  5, 17,  2)
  0 -0.1513E-02  0  0.1268E-02  0 -0.1077E-02  0 -0.7171E-03  0 -0.5016E-03
   (  5, 15,  1)  (  5, 19,  1)  (  5, 20,  1)  (  5, 19,  3)  (  5, 18,  5)
  0 -0.3266E-03  0  0.2838E-03  0 -0.2291E-03  0  0.1723E-03  0 -0.1890E-03
   (  5, 20,  3)  (  5, 19,  2)  (  5, 18,  1)  (  5, 15,  1)  (  5, 15,  2)
  1  0.6692E-03  0 -0.4438E-03  0 -0.4258E-03  0 -0.3184E-03  0  0.2100E-03
   (  5,  6,  1)  (  5, 16,  2)  (  5,  6,  1)  (  5, 19,  2)  (  5, 18,  1)
  0  0.1702E-03  0 -0.1366E-03  0  0.9193E-04  0 -0.5110E-04  0 -0.3564E-04
   (  5, 13,  3)  (  5, 19,  1)  (  5, 20,  1)  (  5, 20,  1)  (  5, 18,  2)
  0  0.2757E-04  0 -0.3742E-04  0  0.2084E-04  0 -0.2041E-04  0  0.1636E-04
   (  5, 16,  4)  (  5, 16,  2)  (  5, 15,  1)  (  5, 19,  2)  (  5, 19,  4)
  0 -0.8878E-05  0  0.6250E-05  0  0.4718E-05  0 -0.4729E-05  0  0.2810E-05
   (  5, 17,  3)  (  5, 12,  2)  (  5, 19,  2)  (  5, 18,  1)  (  5, 15,  1)
  0 -0.2698E-05  0  0.1733E-05  0 -0.1615E-05  0 -0.1254E-05  0  0.9940E-06
   (  5, 17,  1)  (  5, 18,  1)  (  5, 16,  2)  (  5, 19,  1)  (  5, 21,  1)
  1 -0.1622E-05  0 -0.1092E-05  0  0.1388E-05  0 -0.1114E-05  0  0.1057E-05
   (  5, 21,  1)  (  5, 16,  3)  (  5, 16,  1)  (  5, 19,  1)  (  5, 15,  4)
  0  0.7692E-06  1 -0.4991E-06
   (  5, 18,  1)  (  5, 18,  1)

 MAXIMUM RESIDUAL FOR EACH ITERATION (1 INDICATES THE FIRST INNER ITERATION):

    RESIDUAL       RESIDUAL       RESIDUAL       RESIDUAL       RESIDUAL    
   LAYER,ROW,COL  LAYER,ROW,COL  LAYER,ROW,COL  LAYER,ROW,COL  LAYER,ROW,COL
 ---------------------------------------------------------------------------
  1  0.6583E-02  0  0.5914E-02  0  0.5297E-02  0  0.4503E-02  0  0.3601E-02
   (  3, 17, 17)  (  3, 17, 17)  (  3, 17, 17)  (  3, 17, 17)  (  3, 17, 17)
  0  0.2710E-02  0  0.1808E-02  0  0.1068E-02  0  0.6053E-03  0  0.3720E-03
   (  3, 17, 17)  (  3, 17, 17)  (  3, 17, 17)  (  3, 20, 11)  (  3, 20, 11)
  0 -0.2765E-03  0  0.2600E-03  0  0.2135E-03  0  0.1722E-03  0  0.1349E-03
   (  4, 21,  2)  (  4, 16, 17)  (  4, 16, 17)  (  4, 16, 17)  (  4, 16, 17)
  0  0.1062E-03  0  0.9245E-04  0  0.6843E-04  0  0.4867E-04  0  0.3539E-04
   (  4, 16, 17)  (  4, 16, 17)  (  4, 16, 17)  (  4, 16, 17)  (  4, 16, 17)
  0  0.3180E-04  0  0.2583E-04  0 -0.2038E-04  0 -0.1471E-04  0 -0.9535E-05
   (  4, 16, 17)  (  4, 16, 17)  (  3, 21,  6)  (  3, 21,  6)  (  3, 21,  6)
  0 -0.5892E-05  0 -0.3722E-05  0 -0.2930E-05  0 -0.2177E-05  0 -0.1302E-05
   (  3, 21,  6)  (  3, 21,  6)  (  3, 21,  6)  (  3, 21,  6)  (  3, 21,  6)
  1  0.3949E-05  0  0.4219E-05  0  0.1404E-05  0  0.8332E-06  0 -0.8033E-06
   (  5,  6,  1)  (  5,  6,  1)  (  5, 11,  4)  (  5, 15, 17)  (  4, 18, 14)
  0 -0.6908E-06  0 -0.5588E-06  0  0.4123E-06  0  0.3711E-06  0  0.3051E-06
   (  4, 18, 14)  (  4, 18, 14)  (  4, 16, 17)  (  4, 16, 17)  (  4, 16, 17)
  0  0.2545E-06  0  0.2040E-06  0  0.1844E-06  0  0.1351E-06  0  0.9519E-07
   (  4, 16, 17)  (  2, 17, 17)  (  2, 17, 17)  (  2, 17, 17)  (  2, 17, 17)
  0  0.6619E-07  0  0.4643E-07  0  0.4075E-07  0  0.2934E-07  0 -0.2496E-07
   (  2, 17, 17)  (  2, 17, 17)  (  2, 17, 17)  (  2, 17, 17)  (  4, 20,  2)
  0 -0.1751E-07  0 -0.1594E-07  0 -0.1150E-07  0  0.9310E-08  0  0.7122E-08
   (  4, 20,  2)  (  4, 20,  2)  (  4, 20,  2)  (  2, 17, 17)  (  2, 17, 17)
  1  0.7386E-08  0  0.5740E-08  0  0.4629E-08  0 -0.4102E-08  0 -0.3743E-08
   (  2, 17, 17)  (  2, 17, 17)  (  2, 17, 17)  (  3, 18, 15)  (  3, 18, 15)
  0 -0.3422E-08  1 -0.3201E-08
   (  3, 18, 15)  (  3, 18, 15)



 OUTPUT CONTROL FOR STRESS PERIOD  109   TIME STEP    2
    SAVE HEAD FOR ALL LAYERS
    SAVE DRAWDOWN FOR ALL LAYERS
    SAVE BUDGET
    PRINT BUDGET
 UBDSV1 SAVING "         STORAGE" ON UNIT   9 AT TIME STEP  2, STRESS PERIOD 109
 UBDSV2 SAVING "   CONSTANT HEAD" ON UNIT   9 AT TIME STEP  2, STRESS PERIOD 109
 UBDSV1 SAVING "FLOW RIGHT FACE " ON UNIT   9 AT TIME STEP  2, STRESS PERIOD 109
 UBDSV1 SAVING "FLOW FRONT FACE " ON UNIT   9 AT TIME STEP  2, STRESS PERIOD 109
 UBDSV1 SAVING "FLOW LOWER FACE " ON UNIT   9 AT TIME STEP  2, STRESS PERIOD 109
 UBDSV3 SAVING "        RECHARGE" ON UNIT   9 AT TIME STEP  2, STRESS PERIOD 109

 HEAD WILL BE SAVED ON UNIT   37 AT END OF TIME STEP    2, STRESS PERIOD  109

 DRAWDOWN WILL BE SAVED ON UNIT   38 AT END OF TIME STEP    2, STRESS PERIOD  109
1
  VOLUMETRIC BUDGET FOR ENTIRE MODEL AT END OF TIME STEP    2, STRESS PERIOD 109
  ------------------------------------------------------------------------------

     CUMULATIVE VOLUMES      L**3       RATES FOR THIS TIME STEP      L**3/T
     ------------------                 ------------------------

           IN:                                      IN:
           ---                                      ---
             STORAGE =       15247.1064               STORAGE =       4.0276E-03
       CONSTANT HEAD =       28174.4551         CONSTANT HEAD =       5.6306E-04
            RECHARGE =        1284.5610              RECHARGE =       9.7813E-05

            TOTAL IN =       44706.1250              TOTAL IN =       4.6884E-03

          OUT:                                     OUT:
          ----                                     ----
             STORAGE =       13922.1309               STORAGE =           0.0000
       CONSTANT HEAD =       30785.2227         CONSTANT HEAD =       4.6885E-03
            RECHARGE =           0.0000              RECHARGE =           0.0000

           TOTAL OUT =       44707.3516             TOTAL OUT =       4.6885E-03

            IN - OUT =          -1.2266              IN - OUT =      -1.1548E-07

 PERCENT DISCREPANCY =          -0.00     PERCENT DISCREPANCY =          -0.00






         TIME SUMMARY AT END OF TIME STEP    2 IN STRESS PERIOD  109
                    SECONDS     MINUTES      HOURS       DAYS        YEARS
                    -----------------------------------------------------------
   TIME STEP LENGTH  86400.      1440.0      24.000      1.0000     2.73785E-03
 STRESS PERIOD TIME 1.72800E+05  2880.0      48.000      2.0000     5.47570E-03
         TOTAL TIME 1.31328E+07 2.18880E+05  3648.0      152.00     0.41615    
1
1
                            STRESS PERIOD NO.  110, LENGTH =   172800.0    
                            -----------------------------------------------

                              NUMBER OF TIME STEPS =     2

                               MULTIPLIER FOR DELT =     1.000

                            INITIAL TIME STEP SIZE =   86400.00    

 REUSING RECH FROM LAST STRESS PERIOD

 CHD NO.   LAYER   ROW   COL    START HEAD        END HEAD         IFACE           
 ----------------------------------------------------------------------------------
      1      4      1      1       110.5           110.3           0.000    
      2      5      1      1       110.5           110.3           0.000    
      3      4      1      2       110.5           110.3           0.000    
      4      5      1      2       110.5           110.3           0.000    
      5      4      1      3       110.5           110.3           0.000    
      6      5      1      3       110.5           110.3           0.000    
      7      4      1      4       110.5           110.3           0.000    
      8      5      1      4       110.5           110.3           0.000    
      9      4      1      5       110.5           110.3           0.000    
     10      5      1      5       110.5           110.3           0.000    
     11      4      1      6       110.5           110.3           0.000    
     12      5      1      6       110.5           110.3           0.000    
     13      4      1      7       110.5           110.3           0.000    
     14      5      1      7       110.5           110.3           0.000    
     15      4      1      8       110.5           110.3           0.000    
     16      5      1      8       110.5           110.3           0.000    
     17      4      1      9       110.5           110.3           0.000    
     18      5      1      9       110.5           110.3           0.000    
     19      4      1     10       110.5           110.3           0.000    
     20      5      1     10       110.5           110.3           0.000    
     21      4      1     11       110.5           110.3           0.000    
     22      5      1     11       110.5           110.3           0.000    
     23      4      1     12       110.5           110.3           0.000    
     24      5      1     12       110.5           110.3           0.000    
     25      4      1     13       110.5           110.3           0.000    
     26      5      1     13       110.5           110.3           0.000    
     27      4      1     14       110.5           110.3           0.000    
     28      5      1     14       110.5           110.3           0.000    
     29      4      1     15       110.5           110.3           0.000    
     30      5      1     15       110.5           110.3           0.000    
     31      4      1     16       110.5           110.3           0.000    
     32      5      1     16       110.5           110.3           0.000    
     33      4      1     17       110.5           110.3           0.000    
     34      5      1     17       110.5           110.3           0.000    
     35      4     17     17       110.3           109.9           0.000    
     36      5     17     17       110.3           109.9           0.000    
     37      4     18     17       110.3           109.9           0.000    
     38      5     18     17       110.3           109.9           0.000    
     39      4     18     16       110.3           109.9           0.000    
     40      5     18     16       110.3           109.9           0.000    
     41      4     19     16       110.3           109.9           0.000    
     42      5     19     16       110.3           109.9           0.000    
     43      4     19     15       110.3           109.9           0.000    
     44      5     19     15       110.3           109.9           0.000    
     45      4     20     15       110.3           109.9           0.000    
     46      5     20     15       110.3           109.9           0.000    
     47      4     20     14       110.3           109.9           0.000    
     48      5     20     14       110.3           109.9           0.000    
     49      4     20     13       110.3           109.9           0.000    
     50      5     20     13       110.3           109.9           0.000    
     51      4     20     12       110.3           109.9           0.000    
     52      5     20     12       110.3           109.9           0.000    
     53      4     20     11       110.3           109.9           0.000    
     54      5     20     11       110.3           109.9           0.000    
     55      4     21     11       110.3           109.9           0.000    
     56      5     21     11       110.3           109.9           0.000    
     57      4     21     10       110.3           109.9           0.000    
     58      5     21     10       110.3           109.9           0.000    
     59      4     21      9       110.3           109.9           0.000    
     60      5     21      9       110.3           109.9           0.000    
     61      4     21      8       110.3           109.9           0.000    
     62      5     21      8       110.3           109.9           0.000    
     63      4     21      7       110.3           109.9           0.000    
     64      5     21      7       110.3           109.9           0.000    
     65      4     21      6       110.2           109.9           0.000    
     66      5     21      6       110.2           109.9           0.000    
     67      4     21      5       110.2           109.9           0.000    
     68      5     21      5       110.2           109.9           0.000    
     69      4     22      5       110.2           109.9           0.000    
     70      5     22      5       110.2           109.9           0.000    
     71      4     22      4       110.2           109.9           0.000    
     72      5     22      4       110.2           109.9           0.000    
     73      4     22      3       110.2           109.9           0.000    
     74      5     22      3       110.2           109.9           0.000    
     75      4     22      2       110.2           109.9           0.000    
     76      5     22      2       110.2           109.9           0.000    
     77      4     22      1       110.2           109.9           0.000    
     78      5     22      1       110.2           109.9           0.000    


     78 TIME-VARIANT SPECIFIED-HEAD CELLS

 SOLVING FOR HEAD 


     4 CALLS TO PCG ROUTINE FOR TIME STEP   1 IN STRESS PERIOD  110
    64 TOTAL ITERATIONS

 MAXIMUM HEAD CHANGE FOR EACH ITERATION (1 INDICATES THE FIRST INNER ITERATION):

    HEAD CHANGE    HEAD CHANGE    HEAD CHANGE    HEAD CHANGE    HEAD CHANGE 
   LAYER,ROW,COL  LAYER,ROW,COL  LAYER,ROW,COL  LAYER,ROW,COL  LAYER,ROW,COL
 ---------------------------------------------------------------------------
  1 -0.3729      0  0.2440      0 -0.2157      0 -0.1697      0 -0.2258    
   (  5, 21,  2)  (  5, 17,  1)  (  5, 16,  2)  (  5, 17,  1)  (  5, 19,  1)
  0 -0.1357      0  0.1178      0  0.8630E-01  0 -0.7919E-01  0  0.4566E-01
   (  5, 20,  1)  (  5, 18,  1)  (  5, 19,  1)  (  5, 18,  1)  (  5, 18,  4)
  0 -0.4021E-01  0  0.2448E-01  0 -0.2215E-01  0 -0.1644E-01  0 -0.1064E-01
   (  5, 17,  3)  (  5, 16,  2)  (  5, 14,  1)  (  5, 12,  5)  (  5, 19,  3)
  0  0.1038E-01  0 -0.4986E-02  0  0.5944E-02  0  0.6315E-02  0  0.2734E-02
   (  5, 18,  2)  (  5, 18,  1)  (  5, 16,  1)  (  5, 19,  3)  (  5, 17,  2)
  0 -0.2071E-02  0  0.1679E-02  0 -0.1446E-02  0 -0.1018E-02  0 -0.7396E-03
   (  5, 16,  1)  (  5, 20,  3)  (  5, 20,  1)  (  5, 19,  3)  (  5, 18,  5)
  0 -0.4982E-03  0 -0.3861E-03  0 -0.1981E-03  0 -0.2293E-03  0  0.1278E-03
   (  5, 20,  3)  (  5, 14,  2)  (  5, 19,  1)  (  5, 12,  1)  (  5, 15,  1)
  1 -0.6805E-03  0  0.9499E-03  0  0.6990E-03  0 -0.6785E-03  0 -0.3917E-03
   (  5, 16,  1)  (  5,  6,  1)  (  5, 18,  1)  (  5, 19,  2)  (  5, 11,  1)
  0  0.2410E-03  0 -0.2191E-03  0  0.1517E-03  0 -0.9603E-04  0  0.6028E-04
   (  5, 13,  3)  (  5, 19,  1)  (  5, 20,  1)  (  5, 20,  1)  (  5, 20,  1)
  0 -0.4294E-04  0  0.5086E-04  0 -0.4830E-04  0 -0.3283E-04  0  0.2522E-04
   (  5, 16,  1)  (  5, 18,  3)  (  5, 14,  4)  (  5, 19,  2)  (  5, 19,  4)
  0  0.1729E-04  0 -0.1031E-04  0 -0.1180E-04  0 -0.7694E-05  0  0.6064E-05
   (  5, 18,  1)  (  5, 19,  1)  (  5, 15,  4)  (  5, 18,  1)  (  5, 15,  1)
  0 -0.4850E-05  0 -0.3427E-05  0  0.2573E-05  0 -0.2136E-05  0  0.1688E-05
   (  5, 19,  3)  (  5, 17,  1)  (  5, 18,  1)  (  5, 19,  1)  (  5, 21,  1)
  0 -0.1342E-05  0 -0.8876E-06  1  0.2071E-05  0 -0.5830E-05  0  0.3135E-05
   (  5, 21,  2)  (  5, 15,  1)  (  5, 15,  1)  (  2, 19, 14)  (  5, 18,  1)
  0 -0.2249E-05  0 -0.1279E-05  0  0.9687E-06  1 -0.7851E-06
   (  5, 19,  3)  (  5, 11,  3)  (  5, 20,  2)  (  5, 19,  1)

 MAXIMUM RESIDUAL FOR EACH ITERATION (1 INDICATES THE FIRST INNER ITERATION):

    RESIDUAL       RESIDUAL       RESIDUAL       RESIDUAL       RESIDUAL    
   LAYER,ROW,COL  LAYER,ROW,COL  LAYER,ROW,COL  LAYER,ROW,COL  LAYER,ROW,COL
 ---------------------------------------------------------------------------
  1  0.1036E-01  0  0.9335E-02  0  0.8389E-02  0  0.7146E-02  0  0.5729E-02
   (  3, 17, 17)  (  3, 17, 17)  (  3, 17, 17)  (  3, 17, 17)  (  3, 17, 17)
  0  0.4327E-02  0  0.2915E-02  0  0.1751E-02  0  0.1013E-02  0  0.6330E-03
   (  3, 17, 17)  (  3, 17, 17)  (  3, 17, 17)  (  3, 20, 11)  (  3, 20, 11)
  0  0.4316E-03  0  0.3992E-03  0  0.3399E-03  0  0.2744E-03  0  0.2155E-03
   (  4, 16, 17)  (  4, 16, 17)  (  4, 16, 17)  (  4, 16, 17)  (  4, 16, 17)
  0  0.1600E-03  0  0.1450E-03  0  0.1105E-03  0  0.7907E-04  0  0.5457E-04
   (  4, 16, 17)  (  4, 16, 17)  (  4, 16, 17)  (  4, 16, 17)  (  4, 16, 17)
  0  0.4899E-04  0  0.3963E-04  0  0.3215E-04  0 -0.2227E-04  0 -0.1443E-04
   (  4, 16, 17)  (  4, 16, 17)  (  4, 16, 17)  (  3, 21,  6)  (  3, 21,  6)
  0 -0.8938E-05  0 -0.4935E-05  0 -0.4280E-05  0 -0.2207E-05  0 -0.1974E-05
   (  3, 21,  6)  (  3, 21,  6)  (  3, 21,  6)  (  3, 21,  6)  (  3, 21,  6)
  1  0.4847E-05  0  0.6918E-05  0  0.2468E-05  0  0.1713E-05  0 -0.1519E-05
   (  2, 17, 17)  (  5,  6,  1)  (  5,  6,  1)  (  5, 11,  4)  (  3, 17, 17)
  0 -0.1283E-05  0 -0.1055E-05  0 -0.7982E-06  0  0.6517E-06  0  0.5571E-06
   (  3, 17, 17)  (  3, 17, 17)  (  3, 17, 17)  (  2, 17, 17)  (  2, 17, 17)
  0  0.5285E-06  0  0.4712E-06  0  0.3625E-06  0  0.2671E-06  0  0.1847E-06
   (  2, 17, 17)  (  2, 17, 17)  (  2, 17, 17)  (  2, 17, 17)  (  2, 17, 17)
  0  0.1290E-06  0  0.1142E-06  0  0.7959E-07  0  0.5638E-07  0  0.5178E-07
   (  2, 17, 17)  (  2, 17, 17)  (  2, 17, 17)  (  2, 17, 17)  (  2, 17, 17)
  0 -0.4389E-07  0 -0.3119E-07  0  0.2021E-07  0  0.1767E-07  0  0.1355E-07
   (  4, 20,  2)  (  4, 20,  2)  (  2, 17, 17)  (  2, 17, 17)  (  2, 17, 17)
  0  0.9213E-08  0  0.6922E-08  1  0.1717E-07  0 -0.1266E-07  0 -0.1062E-07
   (  2, 17, 17)  (  2, 17, 17)  (  2, 21,  4)  (  5,  6,  1)  (  3, 19, 14)
  0 -0.9073E-08  0 -0.7732E-08  0 -0.5877E-08  1 -0.5652E-08
   (  3, 18, 15)  (  3, 18, 15)  (  3, 18, 15)  (  3, 18, 15)



 OUTPUT CONTROL FOR STRESS PERIOD  110   TIME STEP    1
    SAVE HEAD FOR ALL LAYERS
    SAVE DRAWDOWN FOR ALL LAYERS
    SAVE BUDGET
    PRINT BUDGET
 UBDSV1 SAVING "         STORAGE" ON UNIT   9 AT TIME STEP  1, STRESS PERIOD 110
 UBDSV2 SAVING "   CONSTANT HEAD" ON UNIT   9 AT TIME STEP  1, STRESS PERIOD 110
 UBDSV1 SAVING "FLOW RIGHT FACE " ON UNIT   9 AT TIME STEP  1, STRESS PERIOD 110
 UBDSV1 SAVING "FLOW FRONT FACE " ON UNIT   9 AT TIME STEP  1, STRESS PERIOD 110
 UBDSV1 SAVING "FLOW LOWER FACE " ON UNIT   9 AT TIME STEP  1, STRESS PERIOD 110
 UBDSV3 SAVING "        RECHARGE" ON UNIT   9 AT TIME STEP  1, STRESS PERIOD 110

 HEAD WILL BE SAVED ON UNIT   37 AT END OF TIME STEP    1, STRESS PERIOD  110

 DRAWDOWN WILL BE SAVED ON UNIT   38 AT END OF TIME STEP    1, STRESS PERIOD  110
1
  VOLUMETRIC BUDGET FOR ENTIRE MODEL AT END OF TIME STEP    1, STRESS PERIOD 110
  ------------------------------------------------------------------------------

     CUMULATIVE VOLUMES      L**3       RATES FOR THIS TIME STEP      L**3/T
     ------------------                 ------------------------

           IN:                                      IN:
           ---                                      ---
             STORAGE =       15682.7363               STORAGE =       5.0420E-03
       CONSTANT HEAD =       28272.8379         CONSTANT HEAD =       1.1387E-03
            RECHARGE =        1293.0121              RECHARGE =       9.7813E-05

            TOTAL IN =       45248.5859              TOTAL IN =       6.2785E-03

          OUT:                                     OUT:
          ----                                     ----
             STORAGE =       13922.1309               STORAGE =           0.0000
       CONSTANT HEAD =       31327.6953         CONSTANT HEAD =       6.2786E-03
            RECHARGE =           0.0000              RECHARGE =           0.0000

           TOTAL OUT =       45249.8281             TOTAL OUT =       6.2786E-03

            IN - OUT =          -1.2422              IN - OUT =      -9.7789E-08

 PERCENT DISCREPANCY =          -0.00     PERCENT DISCREPANCY =          -0.00






         TIME SUMMARY AT END OF TIME STEP    1 IN STRESS PERIOD  110
                    SECONDS     MINUTES      HOURS       DAYS        YEARS
                    -----------------------------------------------------------
   TIME STEP LENGTH  86400.      1440.0      24.000      1.0000     2.73785E-03
 STRESS PERIOD TIME  86400.      1440.0      24.000      1.0000     2.73785E-03
         TOTAL TIME 1.32192E+07 2.20320E+05  3672.0      153.00     0.41889    
1

 SOLVING FOR HEAD 
     4 CALLS TO PCG ROUTINE FOR TIME STEP   2 IN STRESS PERIOD  110
    66 TOTAL ITERATIONS

 MAXIMUM HEAD CHANGE FOR EACH ITERATION (1 INDICATES THE FIRST INNER ITERATION):

    HEAD CHANGE    HEAD CHANGE    HEAD CHANGE    HEAD CHANGE    HEAD CHANGE 
   LAYER,ROW,COL  LAYER,ROW,COL  LAYER,ROW,COL  LAYER,ROW,COL  LAYER,ROW,COL
 ---------------------------------------------------------------------------
  1 -0.3787      0  0.2466      0 -0.2183      0 -0.1712      0 -0.2268    
   (  5, 21,  2)  (  5, 17,  1)  (  5, 16,  2)  (  5, 17,  1)  (  5, 19,  1)
  0 -0.1367      0  0.1184      0  0.8663E-01  0 -0.8005E-01  0  0.4578E-01
   (  5, 20,  1)  (  5, 18,  1)  (  5, 19,  1)  (  5, 18,  1)  (  5, 18,  4)
  0 -0.3705E-01  0  0.2716E-01  0 -0.1587E-01  0  0.1361E-01  0 -0.1095E-01
   (  5, 17,  3)  (  5, 16,  3)  (  5, 15,  1)  (  5, 17,  2)  (  5, 19,  3)
  0 -0.7158E-02  0  0.6200E-02  0  0.4610E-02  0  0.6566E-02  0  0.2239E-02
   (  5, 18,  1)  (  5, 18,  2)  (  5, 16,  1)  (  5, 19,  3)  (  5, 17,  2)
  0 -0.2086E-02  0 -0.1808E-02  0  0.1243E-02  0 -0.9474E-03  0 -0.7423E-03
   (  5, 17,  5)  (  5, 16,  2)  (  5, 16,  1)  (  5, 19,  1)  (  5, 18,  5)
  0 -0.5136E-03  0 -0.3317E-03  0 -0.3257E-03  0  0.2828E-03  0  0.1594E-03
   (  5, 20,  3)  (  5, 14,  2)  (  5, 19,  2)  (  5, 18,  1)  (  5,  6,  1)
  1  0.1220E-02  0 -0.1489E-02  0  0.7991E-03  0 -0.5163E-03  0 -0.4610E-03
   (  5, 17,  2)  (  5, 17,  2)  (  5, 19,  1)  (  5, 12,  1)  (  5, 19,  1)
  0  0.2925E-03  0 -0.1999E-03  0  0.1003E-03  0 -0.7720E-04  0 -0.7375E-04
   (  5, 18,  1)  (  5, 11,  3)  (  5, 11,  4)  (  5, 12,  5)  (  5, 16,  4)
  0  0.5402E-04  0 -0.5016E-04  0 -0.2967E-04  0  0.4630E-04  0  0.2388E-04
   (  5, 17,  4)  (  5, 20,  1)  (  5, 16,  2)  (  5, 16,  1)  (  5, 19,  4)
  0 -0.2107E-04  0  0.1605E-04  0 -0.9616E-05  0  0.7416E-05  0  0.5898E-05
   (  5, 20,  1)  (  5, 18,  1)  (  5, 19,  2)  (  5, 20,  3)  (  5, 16,  5)
  0  0.5439E-05  0 -0.2686E-05  0  0.2563E-05  0  0.2132E-05  0  0.1662E-05
   (  5, 19,  1)  (  5, 16,  1)  (  5, 17,  3)  (  5, 21,  2)  (  5, 17,  6)
  0 -0.9888E-06  1 -0.6266E-05  0 -0.4468E-05  0  0.3657E-05  0 -0.2737E-05
   (  5, 21,  3)  (  2, 19, 14)  (  5, 17,  4)  (  5, 16,  2)  (  5, 12,  1)
  0  0.1307E-05  0 -0.1612E-05  0 -0.1331E-05  0  0.1092E-05  0 -0.6704E-06
   (  5, 14,  3)  (  5, 15,  3)  (  5, 19,  1)  (  5, 20,  2)  (  5, 20,  1)
  1  0.4380E-06
   (  5, 20,  1)

 MAXIMUM RESIDUAL FOR EACH ITERATION (1 INDICATES THE FIRST INNER ITERATION):

    RESIDUAL       RESIDUAL       RESIDUAL       RESIDUAL       RESIDUAL    
   LAYER,ROW,COL  LAYER,ROW,COL  LAYER,ROW,COL  LAYER,ROW,COL  LAYER,ROW,COL
 ---------------------------------------------------------------------------
  1  0.1035E-01  0  0.9326E-02  0  0.8382E-02  0  0.7153E-02  0  0.5747E-02
   (  3, 17, 17)  (  3, 17, 17)  (  3, 17, 17)  (  3, 17, 17)  (  3, 17, 17)
  0  0.4350E-02  0  0.2931E-02  0  0.1756E-02  0  0.1015E-02  0  0.6337E-03
   (  3, 17, 17)  (  3, 17, 17)  (  3, 17, 17)  (  3, 20, 11)  (  3, 20, 11)
  0  0.4291E-03  0  0.3469E-03  0  0.2964E-03  0  0.2712E-03  0  0.2143E-03
   (  4, 16, 17)  (  4, 16, 17)  (  4, 16, 17)  (  4, 16, 17)  (  4, 16, 17)
  0  0.1649E-03  0  0.1475E-03  0  0.1101E-03  0  0.7898E-04  0  0.5397E-04
   (  4, 16, 17)  (  4, 16, 17)  (  4, 16, 17)  (  4, 16, 17)  (  4, 16, 17)
  0  0.3714E-04  0  0.2849E-04  0 -0.2441E-04  0 -0.2099E-04  0 -0.1453E-04
   (  4, 16, 17)  (  4, 16, 17)  (  3, 21,  6)  (  3, 21,  6)  (  3, 21,  6)
  0 -0.9007E-05  0 -0.4879E-05  0 -0.3249E-05  0 -0.2188E-05  0  0.1344E-05
   (  3, 21,  6)  (  3, 21,  6)  (  3, 21,  6)  (  3, 21,  6)  (  3, 17, 17)
  1  0.3814E-05  0  0.2382E-05  0 -0.2103E-05  0 -0.1958E-05  0 -0.1717E-05
   (  2, 17, 17)  (  4,  6,  2)  (  4,  8,  3)  (  3, 17, 17)  (  3, 17, 17)
  0 -0.1497E-05  0 -0.1203E-05  0 -0.9146E-06  0 -0.7008E-06  0  0.5745E-06
   (  3, 17, 17)  (  3, 17, 17)  (  3, 17, 17)  (  3, 17, 17)  (  2, 17, 17)
  0  0.4861E-06  0  0.3779E-06  0  0.3502E-06  0  0.2547E-06  0  0.1733E-06
   (  2, 17, 17)  (  2, 17, 17)  (  2, 17, 17)  (  2, 17, 17)  (  2, 17, 17)
  0  0.1120E-06  0  0.9099E-07  0  0.7335E-07  0  0.5153E-07  0 -0.4041E-07
   (  2, 17, 17)  (  2, 17, 17)  (  2, 17, 17)  (  2, 17, 17)  (  4, 20,  2)
  0 -0.3599E-07  0 -0.3115E-07  0 -0.2370E-07  0  0.1672E-07  0  0.1227E-07
   (  4, 20,  2)  (  4, 20,  2)  (  4, 20,  2)  (  2, 17, 17)  (  2, 17, 17)
  0  0.8717E-08  1 -0.1537E-07  0 -0.1380E-07  0 -0.1284E-07  0 -0.1151E-07
   (  2, 17, 17)  (  3, 18, 15)  (  3, 18, 15)  (  3, 18, 15)  (  3, 18, 15)
  0 -0.9323E-08  0 -0.7349E-08  0 -0.5931E-08  0 -0.4117E-08  0 -0.2848E-08
   (  3, 18, 15)  (  3, 18, 15)  (  3, 18, 15)  (  3, 18, 15)  (  3, 18, 15)
  1 -0.2801E-08
   (  3, 18, 15)



 OUTPUT CONTROL FOR STRESS PERIOD  110   TIME STEP    2
    SAVE HEAD FOR ALL LAYERS
    SAVE DRAWDOWN FOR ALL LAYERS
    SAVE BUDGET
    PRINT BUDGET
 UBDSV1 SAVING "         STORAGE" ON UNIT   9 AT TIME STEP  2, STRESS PERIOD 110
 UBDSV2 SAVING "   CONSTANT HEAD" ON UNIT   9 AT TIME STEP  2, STRESS PERIOD 110
 UBDSV1 SAVING "FLOW RIGHT FACE " ON UNIT   9 AT TIME STEP  2, STRESS PERIOD 110
 UBDSV1 SAVING "FLOW FRONT FACE " ON UNIT   9 AT TIME STEP  2, STRESS PERIOD 110
 UBDSV1 SAVING "FLOW LOWER FACE " ON UNIT   9 AT TIME STEP  2, STRESS PERIOD 110
 UBDSV3 SAVING "        RECHARGE" ON UNIT   9 AT TIME STEP  2, STRESS PERIOD 110

 HEAD WILL BE SAVED ON UNIT   37 AT END OF TIME STEP    2, STRESS PERIOD  110

 DRAWDOWN WILL BE SAVED ON UNIT   38 AT END OF TIME STEP    2, STRESS PERIOD  110
1
  VOLUMETRIC BUDGET FOR ENTIRE MODEL AT END OF TIME STEP    2, STRESS PERIOD 110
  ------------------------------------------------------------------------------

     CUMULATIVE VOLUMES      L**3       RATES FOR THIS TIME STEP      L**3/T
     ------------------                 ------------------------

           IN:                                      IN:
           ---                                      ---
             STORAGE =       16143.7188               STORAGE =       5.3354E-03
       CONSTANT HEAD =       28437.0586         CONSTANT HEAD =       1.9007E-03
            RECHARGE =        1301.4631              RECHARGE =       9.7813E-05

            TOTAL IN =       45882.2422              TOTAL IN =       7.3340E-03

          OUT:                                     OUT:
          ----                                     ----
             STORAGE =       13922.1309               STORAGE =           0.0000
       CONSTANT HEAD =       31961.3574         CONSTANT HEAD =       7.3341E-03
            RECHARGE =           0.0000              RECHARGE =           0.0000

           TOTAL OUT =       45883.4883             TOTAL OUT =       7.3341E-03

            IN - OUT =          -1.2461              IN - OUT =      -8.5682E-08

 PERCENT DISCREPANCY =          -0.00     PERCENT DISCREPANCY =          -0.00






         TIME SUMMARY AT END OF TIME STEP    2 IN STRESS PERIOD  110
                    SECONDS     MINUTES      HOURS       DAYS        YEARS
                    -----------------------------------------------------------
   TIME STEP LENGTH  86400.      1440.0      24.000      1.0000     2.73785E-03
 STRESS PERIOD TIME 1.72800E+05  2880.0      48.000      2.0000     5.47570E-03
         TOTAL TIME 1.33056E+07 2.21760E+05  3696.0      154.00     0.42163    
1
1
                            STRESS PERIOD NO.  111, LENGTH =   86400.00    
                            -----------------------------------------------

                              NUMBER OF TIME STEPS =     1

                               MULTIPLIER FOR DELT =     1.000

                            INITIAL TIME STEP SIZE =   86400.00    

 REUSING RECH FROM LAST STRESS PERIOD

 CHD NO.   LAYER   ROW   COL    START HEAD        END HEAD         IFACE           
 ----------------------------------------------------------------------------------
      1      4      1      1       110.3           110.3           0.000    
      2      5      1      1       110.3           110.3           0.000    
      3      4      1      2       110.3           110.3           0.000    
      4      5      1      2       110.3           110.3           0.000    
      5      4      1      3       110.3           110.3           0.000    
      6      5      1      3       110.3           110.3           0.000    
      7      4      1      4       110.3           110.3           0.000    
      8      5      1      4       110.3           110.3           0.000    
      9      4      1      5       110.3           110.3           0.000    
     10      5      1      5       110.3           110.3           0.000    
     11      4      1      6       110.3           110.3           0.000    
     12      5      1      6       110.3           110.3           0.000    
     13      4      1      7       110.3           110.3           0.000    
     14      5      1      7       110.3           110.3           0.000    
     15      4      1      8       110.3           110.3           0.000    
     16      5      1      8       110.3           110.3           0.000    
     17      4      1      9       110.3           110.3           0.000    
     18      5      1      9       110.3           110.3           0.000    
     19      4      1     10       110.3           110.3           0.000    
     20      5      1     10       110.3           110.3           0.000    
     21      4      1     11       110.3           110.3           0.000    
     22      5      1     11       110.3           110.3           0.000    
     23      4      1     12       110.3           110.3           0.000    
     24      5      1     12       110.3           110.3           0.000    
     25      4      1     13       110.3           110.3           0.000    
     26      5      1     13       110.3           110.3           0.000    
     27      4      1     14       110.3           110.3           0.000    
     28      5      1     14       110.3           110.3           0.000    
     29      4      1     15       110.3           110.3           0.000    
     30      5      1     15       110.3           110.3           0.000    
     31      4      1     16       110.3           110.3           0.000    
     32      5      1     16       110.3           110.3           0.000    
     33      4      1     17       110.3           110.3           0.000    
     34      5      1     17       110.3           110.3           0.000    
     35      4     17     17       109.9           109.9           0.000    
     36      5     17     17       109.9           109.9           0.000    
     37      4     18     17       109.9           109.9           0.000    
     38      5     18     17       109.9           109.9           0.000    
     39      4     18     16       109.9           109.9           0.000    
     40      5     18     16       109.9           109.9           0.000    
     41      4     19     16       109.9           109.9           0.000    
     42      5     19     16       109.9           109.9           0.000    
     43      4     19     15       109.9           109.9           0.000    
     44      5     19     15       109.9           109.9           0.000    
     45      4     20     15       109.9           109.9           0.000    
     46      5     20     15       109.9           109.9           0.000    
     47      4     20     14       109.9           109.9           0.000    
     48      5     20     14       109.9           109.9           0.000    
     49      4     20     13       109.9           109.9           0.000    
     50      5     20     13       109.9           109.9           0.000    
     51      4     20     12       109.9           109.9           0.000    
     52      5     20     12       109.9           109.9           0.000    
     53      4     20     11       109.9           109.9           0.000    
     54      5     20     11       109.9           109.9           0.000    
     55      4     21     11       109.9           109.9           0.000    
     56      5     21     11       109.9           109.9           0.000    
     57      4     21     10       109.9           109.9           0.000    
     58      5     21     10       109.9           109.9           0.000    
     59      4     21      9       109.9           109.9           0.000    
     60      5     21      9       109.9           109.9           0.000    
     61      4     21      8       109.9           109.9           0.000    
     62      5     21      8       109.9           109.9           0.000    
     63      4     21      7       109.9           109.9           0.000    
     64      5     21      7       109.9           109.9           0.000    
     65      4     21      6       109.9           109.9           0.000    
     66      5     21      6       109.9           109.9           0.000    
     67      4     21      5       109.9           109.9           0.000    
     68      5     21      5       109.9           109.9           0.000    
     69      4     22      5       109.9           109.9           0.000    
     70      5     22      5       109.9           109.9           0.000    
     71      4     22      4       109.9           109.9           0.000    
     72      5     22      4       109.9           109.9           0.000    
     73      4     22      3       109.9           109.9           0.000    
     74      5     22      3       109.9           109.9           0.000    
     75      4     22      2       109.9           109.9           0.000    
     76      5     22      2       109.9           109.9           0.000    
     77      4     22      1       109.9           109.9           0.000    
     78      5     22      1       109.9           109.9           0.000    


     78 TIME-VARIANT SPECIFIED-HEAD CELLS

 SOLVING FOR HEAD 


     3 CALLS TO PCG ROUTINE FOR TIME STEP   1 IN STRESS PERIOD  111
    51 TOTAL ITERATIONS

 MAXIMUM HEAD CHANGE FOR EACH ITERATION (1 INDICATES THE FIRST INNER ITERATION):

    HEAD CHANGE    HEAD CHANGE    HEAD CHANGE    HEAD CHANGE    HEAD CHANGE 
   LAYER,ROW,COL  LAYER,ROW,COL  LAYER,ROW,COL  LAYER,ROW,COL  LAYER,ROW,COL
 ---------------------------------------------------------------------------
  1 -0.4053E-01  0  0.1912E-01  0 -0.2043E-01  0  0.2773E-01  0 -0.2384E-01
   (  5, 15,  7)  (  5, 15,  3)  (  5, 14,  1)  (  5, 17,  1)  (  5, 17,  2)
  0 -0.2278E-01  0  0.1194E-01  0 -0.1154E-01  0  0.5913E-02  0  0.5527E-02
   (  5, 19,  1)  (  5, 13,  4)  (  5, 12,  3)  (  5, 11,  1)  (  5, 20,  1)
  0 -0.4029E-02  0  0.2782E-02  0 -0.1576E-02  0  0.1805E-02  0 -0.1111E-02
   (  5, 16,  4)  (  5, 15,  4)  (  5, 16,  1)  (  5, 16,  2)  (  5, 20,  1)
  0 -0.6448E-03  0  0.6463E-03  0 -0.6120E-03  0 -0.5083E-03  0 -0.2690E-03
   (  5, 19,  3)  (  5, 20,  3)  (  5, 18,  1)  (  5, 14,  1)  (  5, 10,  1)
  0 -0.2154E-03  0  0.1393E-03  0 -0.1939E-03  0  0.1008E-03  0 -0.7838E-04
   (  5, 18,  2)  (  5, 17,  2)  (  5, 16,  1)  (  5, 19,  1)  (  5, 15,  4)
  0 -0.7598E-04  0 -0.3019E-04  0  0.2777E-04  0 -0.1854E-04  0 -0.1638E-04
   (  5, 17,  3)  (  5, 15,  1)  (  5, 19,  2)  (  5, 18,  1)  (  5,  7,  1)
  1 -0.1380E-03  0 -0.1538E-03  0  0.1198E-03  0 -0.1191E-03  0 -0.8388E-04
   (  2,  9,  2)  (  5, 16,  1)  (  5, 12,  3)  (  5, 13,  2)  (  5, 18,  2)
  0  0.8271E-04  0 -0.7127E-04  0  0.4137E-04  0 -0.2225E-04  0  0.1063E-04
   (  5, 19,  1)  (  5, 19,  1)  (  5, 20,  1)  (  5, 20,  1)  (  5, 16,  2)
  0  0.1073E-04  0 -0.9160E-05  0  0.7401E-05  0  0.6021E-05  0  0.4174E-05
   (  5, 19,  3)  (  5, 17,  3)  (  5, 17,  1)  (  5, 16,  4)  (  5, 12,  1)
  0  0.4028E-05  0  0.3071E-05  0 -0.2969E-05  0 -0.1677E-05  0 -0.9185E-06
   (  5, 14,  5)  (  5, 18,  1)  (  5, 19,  3)  (  5, 18,  1)  (  5, 13,  6)
  1  0.6348E-06
   (  5, 17,  3)

 MAXIMUM RESIDUAL FOR EACH ITERATION (1 INDICATES THE FIRST INNER ITERATION):

    RESIDUAL       RESIDUAL       RESIDUAL       RESIDUAL       RESIDUAL    
   LAYER,ROW,COL  LAYER,ROW,COL  LAYER,ROW,COL  LAYER,ROW,COL  LAYER,ROW,COL
 ---------------------------------------------------------------------------
  1 -0.1388E-03  0 -0.1512E-03  0 -0.1552E-03  0 -0.1570E-03  0 -0.1438E-03
   (  5, 15, 17)  (  5, 15, 17)  (  5, 16, 17)  (  5, 16, 17)  (  5, 16, 17)
  0 -0.1141E-03  0 -0.9102E-04  0 -0.5909E-04  0  0.3684E-04  0  0.2551E-04
   (  5, 16, 17)  (  5, 16, 17)  (  5, 16, 17)  (  4, 21,  1)  (  3, 17, 17)
  0  0.2541E-04  0  0.1967E-04  0  0.1879E-04  0  0.1415E-04  0  0.1146E-04
   (  4, 21,  1)  (  4, 21,  1)  (  4, 21,  1)  (  4, 21,  1)  (  4, 21,  1)
  0  0.8046E-05  0 -0.5382E-05  0 -0.4793E-05  0 -0.3910E-05  0 -0.3073E-05
   (  4, 21,  1)  (  4, 21,  2)  (  4, 21,  2)  (  4, 21,  2)  (  4, 21,  2)
  0 -0.2298E-05  0 -0.2015E-05  0  0.1396E-05  0  0.1241E-05  0  0.9763E-06
   (  4, 21,  2)  (  4, 21,  2)  (  5, 16, 17)  (  5, 16, 17)  (  5, 16, 17)
  0  0.7124E-06  0  0.4758E-06  0  0.3380E-06  0  0.2958E-06  0  0.1763E-06
   (  5, 16, 17)  (  5, 16, 17)  (  5, 16, 17)  (  5, 16, 17)  (  5, 16, 17)
  1  0.8244E-06  0  0.7137E-06  0 -0.5644E-06  0  0.4169E-06  0 -0.2549E-06
   (  2,  8,  5)  (  5,  7,  1)  (  4,  8,  4)  (  5,  6,  4)  (  3,  8,  5)
  0 -0.1986E-06  0 -0.1562E-06  0 -0.1290E-06  0 -0.1073E-06  0 -0.8845E-07
   (  3,  8,  5)  (  3,  8,  5)  (  3,  8,  5)  (  3,  8,  5)  (  3,  8,  5)
  0 -0.7588E-07  0 -0.6351E-07  0 -0.5574E-07  0 -0.3920E-07  0 -0.2266E-07
   (  3,  8,  5)  (  3,  8,  5)  (  3,  8,  5)  (  3,  8,  5)  (  3,  8,  5)
  0  0.1325E-07  0  0.1159E-07  0  0.8100E-08  0 -0.4958E-08  0 -0.3590E-08
   (  5, 18, 15)  (  5, 18, 15)  (  5, 18, 15)  (  3, 20, 11)  (  3, 20, 11)
  1  0.4867E-08
   (  2,  9,  1)



 OUTPUT CONTROL FOR STRESS PERIOD  111   TIME STEP    1
    SAVE HEAD FOR ALL LAYERS
    SAVE DRAWDOWN FOR ALL LAYERS
    SAVE BUDGET
    PRINT BUDGET
 UBDSV1 SAVING "         STORAGE" ON UNIT   9 AT TIME STEP  1, STRESS PERIOD 111
 UBDSV2 SAVING "   CONSTANT HEAD" ON UNIT   9 AT TIME STEP  1, STRESS PERIOD 111
 UBDSV1 SAVING "FLOW RIGHT FACE " ON UNIT   9 AT TIME STEP  1, STRESS PERIOD 111
 UBDSV1 SAVING "FLOW FRONT FACE " ON UNIT   9 AT TIME STEP  1, STRESS PERIOD 111
 UBDSV1 SAVING "FLOW LOWER FACE " ON UNIT   9 AT TIME STEP  1, STRESS PERIOD 111
 UBDSV3 SAVING "        RECHARGE" ON UNIT   9 AT TIME STEP  1, STRESS PERIOD 111

 HEAD WILL BE SAVED ON UNIT   37 AT END OF TIME STEP    1, STRESS PERIOD  111

 DRAWDOWN WILL BE SAVED ON UNIT   38 AT END OF TIME STEP    1, STRESS PERIOD  111
1
  VOLUMETRIC BUDGET FOR ENTIRE MODEL AT END OF TIME STEP    1, STRESS PERIOD 111
  ------------------------------------------------------------------------------

     CUMULATIVE VOLUMES      L**3       RATES FOR THIS TIME STEP      L**3/T
     ------------------                 ------------------------

           IN:                                      IN:
           ---                                      ---
             STORAGE =       16299.2334               STORAGE =       1.7999E-03
       CONSTANT HEAD =       28688.1641         CONSTANT HEAD =       2.9063E-03
            RECHARGE =        1309.9142              RECHARGE =       9.7813E-05

            TOTAL IN =       46297.3125              TOTAL IN =       4.8041E-03

          OUT:                                     OUT:
          ----                                     ----
             STORAGE =       13922.1533               STORAGE =       2.6266E-07
       CONSTANT HEAD =       32376.4121         CONSTANT HEAD =       4.8039E-03
            RECHARGE =           0.0000              RECHARGE =           0.0000

           TOTAL OUT =       46298.5664             TOTAL OUT =       4.8041E-03

            IN - OUT =          -1.2539              IN - OUT =      -8.0559E-08

 PERCENT DISCREPANCY =          -0.00     PERCENT DISCREPANCY =          -0.00






         TIME SUMMARY AT END OF TIME STEP    1 IN STRESS PERIOD  111
                    SECONDS     MINUTES      HOURS       DAYS        YEARS
                    -----------------------------------------------------------
   TIME STEP LENGTH  86400.      1440.0      24.000      1.0000     2.73785E-03
 STRESS PERIOD TIME  86400.      1440.0      24.000      1.0000     2.73785E-03
         TOTAL TIME 1.33920E+07 2.23200E+05  3720.0      155.00     0.42437    
1
1
                            STRESS PERIOD NO.  112, LENGTH =   86400.00    
                            -----------------------------------------------

                              NUMBER OF TIME STEPS =     1

                               MULTIPLIER FOR DELT =     1.000

                            INITIAL TIME STEP SIZE =   86400.00    

 REUSING RECH FROM LAST STRESS PERIOD

 CHD NO.   LAYER   ROW   COL    START HEAD        END HEAD         IFACE           
 ----------------------------------------------------------------------------------
      1      4      1      1       110.3           110.2           0.000    
      2      5      1      1       110.3           110.2           0.000    
      3      4      1      2       110.3           110.2           0.000    
      4      5      1      2       110.3           110.2           0.000    
      5      4      1      3       110.3           110.2           0.000    
      6      5      1      3       110.3           110.2           0.000    
      7      4      1      4       110.3           110.2           0.000    
      8      5      1      4       110.3           110.2           0.000    
      9      4      1      5       110.3           110.2           0.000    
     10      5      1      5       110.3           110.2           0.000    
     11      4      1      6       110.3           110.2           0.000    
     12      5      1      6       110.3           110.2           0.000    
     13      4      1      7       110.3           110.2           0.000    
     14      5      1      7       110.3           110.2           0.000    
     15      4      1      8       110.3           110.2           0.000    
     16      5      1      8       110.3           110.2           0.000    
     17      4      1      9       110.3           110.2           0.000    
     18      5      1      9       110.3           110.2           0.000    
     19      4      1     10       110.3           110.2           0.000    
     20      5      1     10       110.3           110.2           0.000    
     21      4      1     11       110.3           110.2           0.000    
     22      5      1     11       110.3           110.2           0.000    
     23      4      1     12       110.3           110.2           0.000    
     24      5      1     12       110.3           110.2           0.000    
     25      4      1     13       110.3           110.2           0.000    
     26      5      1     13       110.3           110.2           0.000    
     27      4      1     14       110.3           110.2           0.000    
     28      5      1     14       110.3           110.2           0.000    
     29      4      1     15       110.3           110.2           0.000    
     30      5      1     15       110.3           110.2           0.000    
     31      4      1     16       110.3           110.2           0.000    
     32      5      1     16       110.3           110.2           0.000    
     33      4      1     17       110.3           110.2           0.000    
     34      5      1     17       110.3           110.2           0.000    
     35      4     17     17       109.9           109.9           0.000    
     36      5     17     17       109.9           109.9           0.000    
     37      4     18     17       109.9           109.9           0.000    
     38      5     18     17       109.9           109.9           0.000    
     39      4     18     16       109.9           109.9           0.000    
     40      5     18     16       109.9           109.9           0.000    
     41      4     19     16       109.9           109.9           0.000    
     42      5     19     16       109.9           109.9           0.000    
     43      4     19     15       109.9           109.9           0.000    
     44      5     19     15       109.9           109.9           0.000    
     45      4     20     15       109.9           109.9           0.000    
     46      5     20     15       109.9           109.9           0.000    
     47      4     20     14       109.9           109.9           0.000    
     48      5     20     14       109.9           109.9           0.000    
     49      4     20     13       109.9           109.9           0.000    
     50      5     20     13       109.9           109.9           0.000    
     51      4     20     12       109.9           109.9           0.000    
     52      5     20     12       109.9           109.9           0.000    
     53      4     20     11       109.9           109.9           0.000    
     54      5     20     11       109.9           109.9           0.000    
     55      4     21     11       109.9           109.9           0.000    
     56      5     21     11       109.9           109.9           0.000    
     57      4     21     10       109.9           109.9           0.000    
     58      5     21     10       109.9           109.9           0.000    
     59      4     21      9       109.9           109.9           0.000    
     60      5     21      9       109.9           109.9           0.000    
     61      4     21      8       109.9           109.9           0.000    
     62      5     21      8       109.9           109.9           0.000    
     63      4     21      7       109.9           109.9           0.000    
     64      5     21      7       109.9           109.9           0.000    
     65      4     21      6       109.9           109.9           0.000    
     66      5     21      6       109.9           109.9           0.000    
     67      4     21      5       109.9           109.9           0.000    
     68      5     21      5       109.9           109.9           0.000    
     69      4     22      5       109.9           109.9           0.000    
     70      5     22      5       109.9           109.9           0.000    
     71      4     22      4       109.9           109.9           0.000    
     72      5     22      4       109.9           109.9           0.000    
     73      4     22      3       109.9           109.9           0.000    
     74      5     22      3       109.9           109.9           0.000    
     75      4     22      2       109.9           109.9           0.000    
     76      5     22      2       109.9           109.9           0.000    
     77      4     22      1       109.9           109.9           0.000    
     78      5     22      1       109.9           109.9           0.000    


     78 TIME-VARIANT SPECIFIED-HEAD CELLS

 SOLVING FOR HEAD 


     3 CALLS TO PCG ROUTINE FOR TIME STEP   1 IN STRESS PERIOD  112
    54 TOTAL ITERATIONS

 MAXIMUM HEAD CHANGE FOR EACH ITERATION (1 INDICATES THE FIRST INNER ITERATION):

    HEAD CHANGE    HEAD CHANGE    HEAD CHANGE    HEAD CHANGE    HEAD CHANGE 
   LAYER,ROW,COL  LAYER,ROW,COL  LAYER,ROW,COL  LAYER,ROW,COL  LAYER,ROW,COL
 ---------------------------------------------------------------------------
  1 -0.1308      0  0.8609E-01  0  0.5928E-01  0  0.4577E-01  0 -0.3662E-01
   (  5, 21,  2)  (  5, 18,  1)  (  5, 20,  1)  (  5, 21,  2)  (  5, 19,  1)
  0 -0.2452E-01  0  0.1831E-01  0 -0.1170E-01  0 -0.1226E-01  0 -0.7137E-02
   (  5, 20,  1)  (  5, 18,  1)  (  5, 17,  1)  (  5, 18,  1)  (  5, 19,  1)
  0 -0.6698E-02  0 -0.4393E-02  0  0.3006E-02  0 -0.3349E-02  0 -0.1762E-02
   (  5, 17,  3)  (  5, 14,  1)  (  5, 16,  2)  (  5, 15,  3)  (  5, 19,  3)
  0  0.1580E-02  0  0.9070E-03  0 -0.9283E-03  0  0.1098E-02  0  0.3940E-03
   (  5, 18,  3)  (  5, 17,  1)  (  5, 18,  2)  (  5, 19,  3)  (  5, 17,  2)
  0 -0.3477E-03  0  0.2198E-03  0 -0.2624E-03  0  0.1344E-03  0 -0.1461E-03
   (  5, 17,  1)  (  5, 15,  1)  (  5, 19,  2)  (  5, 19,  1)  (  5, 18,  1)
  0 -0.8683E-04  0 -0.6314E-04  0 -0.4044E-04  0  0.5198E-04  0 -0.2914E-04
   (  5, 20,  3)  (  5, 14,  2)  (  5, 19,  2)  (  5, 18,  1)  (  5, 17,  1)
  1  0.1483E-03  0 -0.1916E-03  0 -0.1395E-03  0 -0.1151E-03  0 -0.1439E-03
   (  5, 16,  1)  (  5, 14,  1)  (  5, 18,  3)  (  5, 13,  2)  (  5, 19,  1)
  0  0.8093E-04  0 -0.5041E-04  0  0.4286E-04  0 -0.1694E-04  0  0.1531E-04
   (  5, 18,  1)  (  5, 18,  2)  (  5, 11,  4)  (  5, 12,  4)  (  5, 16,  1)
  0 -0.1413E-04  0  0.1192E-04  0 -0.1140E-04  0  0.6776E-05  0  0.4366E-05
   (  5, 16,  1)  (  5, 16,  3)  (  5, 20,  1)  (  5, 16,  1)  (  5, 20,  3)
  0 -0.3376E-05  0  0.2760E-05  0 -0.3091E-05  0  0.1553E-05  0 -0.1528E-05
   (  5, 20,  1)  (  5, 17,  1)  (  5, 18,  1)  (  5, 19,  2)  (  5, 17,  3)
  0  0.1179E-05  0 -0.1086E-05  0  0.6018E-06  1 -0.6282E-06
   (  5, 15,  1)  (  5, 16,  5)  (  5, 20,  2)  (  5, 19,  1)

 MAXIMUM RESIDUAL FOR EACH ITERATION (1 INDICATES THE FIRST INNER ITERATION):

    RESIDUAL       RESIDUAL       RESIDUAL       RESIDUAL       RESIDUAL    
   LAYER,ROW,COL  LAYER,ROW,COL  LAYER,ROW,COL  LAYER,ROW,COL  LAYER,ROW,COL
 ---------------------------------------------------------------------------
  1  0.7339E-03  0  0.5722E-03  0  0.4712E-03  0  0.3790E-03  0 -0.3121E-03
   (  3, 17, 17)  (  3, 17, 17)  (  3, 17, 17)  (  3, 17, 17)  (  5, 16, 17)
  0 -0.2499E-03  0 -0.1788E-03  0 -0.1169E-03  0 -0.7445E-04  0 -0.5221E-04
   (  5, 16, 17)  (  5, 16, 17)  (  5, 16, 17)  (  5, 16, 17)  (  5, 16, 17)
  0  0.4157E-04  0  0.2855E-04  0  0.2553E-04  0 -0.1537E-04  0 -0.1194E-04
   (  4, 16, 17)  (  4, 16, 17)  (  4, 16, 17)  (  5,  3, 17)  (  5,  3, 17)
  0 -0.8896E-05  0 -0.8018E-05  0 -0.6007E-05  0 -0.4562E-05  0 -0.3580E-05
   (  5,  2, 17)  (  5,  2, 17)  (  5,  2, 17)  (  3, 21,  6)  (  3, 21,  6)
  0 -0.2795E-05  0 -0.2623E-05  0 -0.1908E-05  0 -0.1670E-05  0 -0.1105E-05
   (  3, 21,  6)  (  3, 21,  6)  (  3, 21,  6)  (  4, 21,  2)  (  4, 21,  2)
  0 -0.6406E-06  0  0.4224E-06  0  0.3760E-06  0  0.2536E-06  0 -0.2058E-06
   (  4, 21,  2)  (  5, 15, 17)  (  5, 15, 17)  (  5, 15, 17)  (  3, 20, 11)
  1  0.9360E-06  0  0.7223E-06  0  0.5352E-06  0  0.3736E-06  0 -0.2506E-06
   (  2,  8,  5)  (  5,  6,  3)  (  5,  6,  3)  (  5,  6,  4)  (  4,  6,  2)
  0  0.2012E-06  0  0.1587E-06  0 -0.1287E-06  0 -0.1058E-06  0 -0.8593E-07
   (  5,  3, 10)  (  5,  3, 10)  (  3,  8,  5)  (  3,  8,  5)  (  3,  8,  5)
  0 -0.7769E-07  0 -0.6905E-07  0 -0.5333E-07  0 -0.3958E-07  0 -0.3198E-07
   (  3,  8,  5)  (  3,  8,  5)  (  3,  8,  5)  (  3,  8,  5)  (  3, 17, 17)
  0 -0.2241E-07  0 -0.1438E-07  0 -0.8820E-08  0  0.7148E-08  0  0.7454E-08
   (  3, 17, 17)  (  3, 17, 17)  (  3, 17, 17)  (  4, 17, 16)  (  4, 19,  2)
  0  0.6125E-08  0 -0.3197E-08  0 -0.3066E-08  1  0.3931E-08
   (  4, 19,  2)  (  5, 17, 16)  (  5, 17, 16)  (  2,  8,  5)



 OUTPUT CONTROL FOR STRESS PERIOD  112   TIME STEP    1
    SAVE HEAD FOR ALL LAYERS
    SAVE DRAWDOWN FOR ALL LAYERS
    SAVE BUDGET
    PRINT BUDGET
 UBDSV1 SAVING "         STORAGE" ON UNIT   9 AT TIME STEP  1, STRESS PERIOD 112
 UBDSV2 SAVING "   CONSTANT HEAD" ON UNIT   9 AT TIME STEP  1, STRESS PERIOD 112
 UBDSV1 SAVING "FLOW RIGHT FACE " ON UNIT   9 AT TIME STEP  1, STRESS PERIOD 112
 UBDSV1 SAVING "FLOW FRONT FACE " ON UNIT   9 AT TIME STEP  1, STRESS PERIOD 112
 UBDSV1 SAVING "FLOW LOWER FACE " ON UNIT   9 AT TIME STEP  1, STRESS PERIOD 112
 UBDSV3 SAVING "        RECHARGE" ON UNIT   9 AT TIME STEP  1, STRESS PERIOD 112

 HEAD WILL BE SAVED ON UNIT   37 AT END OF TIME STEP    1, STRESS PERIOD  112

 DRAWDOWN WILL BE SAVED ON UNIT   38 AT END OF TIME STEP    1, STRESS PERIOD  112
1
  VOLUMETRIC BUDGET FOR ENTIRE MODEL AT END OF TIME STEP    1, STRESS PERIOD 112
  ------------------------------------------------------------------------------

     CUMULATIVE VOLUMES      L**3       RATES FOR THIS TIME STEP      L**3/T
     ------------------                 ------------------------

           IN:                                      IN:
           ---                                      ---
             STORAGE =       16481.2129               STORAGE =       2.1062E-03
       CONSTANT HEAD =       28835.7656         CONSTANT HEAD =       1.7084E-03
            RECHARGE =        1318.3652              RECHARGE =       9.7813E-05

            TOTAL IN =       46635.3438              TOTAL IN =       3.9124E-03

          OUT:                                     OUT:
          ----                                     ----
             STORAGE =       13922.1533               STORAGE =           0.0000
       CONSTANT HEAD =       32714.4512         CONSTANT HEAD =       3.9125E-03
            RECHARGE =           0.0000              RECHARGE =           0.0000

           TOTAL OUT =       46636.6055             TOTAL OUT =       3.9125E-03

            IN - OUT =          -1.2617              IN - OUT =      -7.9628E-08

 PERCENT DISCREPANCY =          -0.00     PERCENT DISCREPANCY =          -0.00






         TIME SUMMARY AT END OF TIME STEP    1 IN STRESS PERIOD  112
                    SECONDS     MINUTES      HOURS       DAYS        YEARS
                    -----------------------------------------------------------
   TIME STEP LENGTH  86400.      1440.0      24.000      1.0000     2.73785E-03
 STRESS PERIOD TIME  86400.      1440.0      24.000      1.0000     2.73785E-03
         TOTAL TIME 1.34784E+07 2.24640E+05  3744.0      156.00     0.42710    
1
1
                            STRESS PERIOD NO.  113, LENGTH =   86400.00    
                            -----------------------------------------------

                              NUMBER OF TIME STEPS =     1

                               MULTIPLIER FOR DELT =     1.000

                            INITIAL TIME STEP SIZE =   86400.00    

 REUSING RECH FROM LAST STRESS PERIOD

 CHD NO.   LAYER   ROW   COL    START HEAD        END HEAD         IFACE           
 ----------------------------------------------------------------------------------
      1      4      1      1       110.2           110.1           0.000    
      2      5      1      1       110.2           110.1           0.000    
      3      4      1      2       110.2           110.1           0.000    
      4      5      1      2       110.2           110.1           0.000    
      5      4      1      3       110.2           110.1           0.000    
      6      5      1      3       110.2           110.1           0.000    
      7      4      1      4       110.2           110.1           0.000    
      8      5      1      4       110.2           110.1           0.000    
      9      4      1      5       110.2           110.1           0.000    
     10      5      1      5       110.2           110.1           0.000    
     11      4      1      6       110.2           110.1           0.000    
     12      5      1      6       110.2           110.1           0.000    
     13      4      1      7       110.2           110.1           0.000    
     14      5      1      7       110.2           110.1           0.000    
     15      4      1      8       110.2           110.1           0.000    
     16      5      1      8       110.2           110.1           0.000    
     17      4      1      9       110.2           110.1           0.000    
     18      5      1      9       110.2           110.1           0.000    
     19      4      1     10       110.2           110.1           0.000    
     20      5      1     10       110.2           110.1           0.000    
     21      4      1     11       110.2           110.1           0.000    
     22      5      1     11       110.2           110.1           0.000    
     23      4      1     12       110.2           110.1           0.000    
     24      5      1     12       110.2           110.1           0.000    
     25      4      1     13       110.2           110.1           0.000    
     26      5      1     13       110.2           110.1           0.000    
     27      4      1     14       110.2           110.1           0.000    
     28      5      1     14       110.2           110.1           0.000    
     29      4      1     15       110.2           110.1           0.000    
     30      5      1     15       110.2           110.1           0.000    
     31      4      1     16       110.2           110.1           0.000    
     32      5      1     16       110.2           110.1           0.000    
     33      4      1     17       110.2           110.1           0.000    
     34      5      1     17       110.2           110.1           0.000    
     35      4     17     17       109.9           109.9           0.000    
     36      5     17     17       109.9           109.9           0.000    
     37      4     18     17       109.9           109.9           0.000    
     38      5     18     17       109.9           109.9           0.000    
     39      4     18     16       109.9           109.9           0.000    
     40      5     18     16       109.9           109.9           0.000    
     41      4     19     16       109.9           109.9           0.000    
     42      5     19     16       109.9           109.9           0.000    
     43      4     19     15       109.9           109.9           0.000    
     44      5     19     15       109.9           109.9           0.000    
     45      4     20     15       109.9           109.9           0.000    
     46      5     20     15       109.9           109.9           0.000    
     47      4     20     14       109.9           109.9           0.000    
     48      5     20     14       109.9           109.9           0.000    
     49      4     20     13       109.9           109.9           0.000    
     50      5     20     13       109.9           109.9           0.000    
     51      4     20     12       109.9           109.9           0.000    
     52      5     20     12       109.9           109.9           0.000    
     53      4     20     11       109.9           109.9           0.000    
     54      5     20     11       109.9           109.9           0.000    
     55      4     21     11       109.9           109.9           0.000    
     56      5     21     11       109.9           109.9           0.000    
     57      4     21     10       109.9           109.9           0.000    
     58      5     21     10       109.9           109.9           0.000    
     59      4     21      9       109.9           109.9           0.000    
     60      5     21      9       109.9           109.9           0.000    
     61      4     21      8       109.9           109.9           0.000    
     62      5     21      8       109.9           109.9           0.000    
     63      4     21      7       109.9           109.9           0.000    
     64      5     21      7       109.9           109.9           0.000    
     65      4     21      6       109.9           109.9           0.000    
     66      5     21      6       109.9           109.9           0.000    
     67      4     21      5       109.9           109.8           0.000    
     68      5     21      5       109.9           109.8           0.000    
     69      4     22      5       109.9           109.8           0.000    
     70      5     22      5       109.9           109.8           0.000    
     71      4     22      4       109.9           109.8           0.000    
     72      5     22      4       109.9           109.8           0.000    
     73      4     22      3       109.9           109.8           0.000    
     74      5     22      3       109.9           109.8           0.000    
     75      4     22      2       109.9           109.8           0.000    
     76      5     22      2       109.9           109.8           0.000    
     77      4     22      1       109.9           109.8           0.000    
     78      5     22      1       109.9           109.8           0.000    


     78 TIME-VARIANT SPECIFIED-HEAD CELLS

 SOLVING FOR HEAD 


     3 CALLS TO PCG ROUTINE FOR TIME STEP   1 IN STRESS PERIOD  113
    52 TOTAL ITERATIONS

 MAXIMUM HEAD CHANGE FOR EACH ITERATION (1 INDICATES THE FIRST INNER ITERATION):

    HEAD CHANGE    HEAD CHANGE    HEAD CHANGE    HEAD CHANGE    HEAD CHANGE 
   LAYER,ROW,COL  LAYER,ROW,COL  LAYER,ROW,COL  LAYER,ROW,COL  LAYER,ROW,COL
 ---------------------------------------------------------------------------
  1 -0.1155      0  0.7630E-01  0 -0.6744E-01  0 -0.5147E-01  0 -0.6444E-01
   (  5, 21,  2)  (  5, 17,  1)  (  5, 16,  2)  (  5, 17,  1)  (  5, 19,  1)
  0 -0.4114E-01  0  0.3340E-01  0  0.2338E-01  0 -0.2181E-01  0  0.1183E-01
   (  5, 20,  1)  (  5, 18,  1)  (  5, 19,  1)  (  5, 18,  1)  (  5, 18,  4)
  0 -0.9942E-02  0  0.7249E-02  0 -0.3846E-02  0 -0.3962E-02  0 -0.2863E-02
   (  5, 17,  3)  (  5, 16,  3)  (  5, 15,  1)  (  5, 12,  5)  (  5, 19,  3)
  0  0.2663E-02  0  0.1288E-02  0  0.1224E-02  0 -0.1036E-02  0  0.5785E-03
   (  5, 18,  3)  (  5, 16,  1)  (  5, 19,  2)  (  5, 19,  1)  (  5, 17,  2)
  0 -0.6028E-03  0  0.3560E-03  0 -0.4057E-03  0  0.2408E-03  0 -0.2240E-03
   (  5, 17,  5)  (  5, 15,  1)  (  5, 19,  2)  (  5, 19,  1)  (  5, 18,  1)
  0 -0.1360E-03  0 -0.8428E-04  0 -0.7488E-04  0  0.4436E-04  0 -0.4013E-04
   (  5, 20,  3)  (  5, 14,  2)  (  5,  6,  1)  (  5, 20,  2)  (  5, 17,  1)
  1  0.1341E-03  0 -0.2005E-03  0  0.1554E-03  0  0.1730E-03  0 -0.1203E-03
   (  5, 17,  1)  (  5, 14,  1)  (  5, 14,  2)  (  5, 19,  1)  (  5, 19,  1)
  0  0.6885E-04  0 -0.3782E-04  0  0.3180E-04  0  0.1675E-04  0 -0.1100E-04
   (  5, 13,  3)  (  5, 11,  3)  (  5, 11,  4)  (  5, 15,  4)  (  5, 15,  3)
  0 -0.9801E-05  0  0.6210E-05  0 -0.8966E-05  0  0.5874E-05  0 -0.4131E-05
   (  5, 16,  1)  (  5, 15,  2)  (  5, 20,  1)  (  5, 16,  1)  (  5, 18,  1)
  0  0.3396E-05  0  0.2275E-05  0  0.2233E-05  0 -0.1504E-05  0 -0.1005E-05
   (  5, 19,  2)  (  5, 15,  3)  (  5, 17,  1)  (  5, 19,  1)  (  5, 13,  6)
  0  0.6239E-06  1 -0.6670E-06
   (  5, 15,  2)  (  5, 16,  1)

 MAXIMUM RESIDUAL FOR EACH ITERATION (1 INDICATES THE FIRST INNER ITERATION):

    RESIDUAL       RESIDUAL       RESIDUAL       RESIDUAL       RESIDUAL    
   LAYER,ROW,COL  LAYER,ROW,COL  LAYER,ROW,COL  LAYER,ROW,COL  LAYER,ROW,COL
 ---------------------------------------------------------------------------
  1  0.2409E-02  0  0.2107E-02  0  0.1836E-02  0  0.1508E-02  0  0.1167E-02
   (  3, 17, 17)  (  3, 17, 17)  (  3, 17, 17)  (  3, 17, 17)  (  3, 17, 17)
  0  0.8457E-03  0  0.5466E-03  0  0.3099E-03  0  0.1641E-03  0 -0.1206E-03
   (  3, 17, 17)  (  3, 17, 17)  (  3, 17, 17)  (  3, 17, 17)  (  4, 21,  2)
  0 -0.1053E-03  0 -0.7984E-04  0  0.7425E-04  0  0.5878E-04  0  0.4481E-04
   (  4, 21,  2)  (  4, 21,  2)  (  4, 16, 17)  (  4, 16, 17)  (  4, 16, 17)
  0  0.3099E-04  0  0.2236E-04  0  0.1903E-04  0 -0.1517E-04  0 -0.1150E-04
   (  4, 16, 17)  (  4, 16, 17)  (  4, 16, 17)  (  3, 21,  6)  (  3, 21,  6)
  0 -0.8611E-05  0 -0.7675E-05  0 -0.6205E-05  0 -0.5413E-05  0 -0.3563E-05
   (  3, 21,  6)  (  3, 21,  6)  (  3, 21,  6)  (  3, 21,  6)  (  3, 21,  6)
  0 -0.2154E-05  0 -0.1101E-05  0  0.4968E-06  0  0.3992E-06  0  0.3567E-06
   (  3, 21,  6)  (  3, 21,  6)  (  5, 15, 17)  (  5, 15, 17)  (  5, 15, 17)
  1  0.8413E-06  0  0.6158E-06  0  0.5738E-06  0  0.4217E-06  0 -0.3010E-06
   (  2,  8,  5)  (  2,  8,  5)  (  5,  6,  2)  (  5,  6,  4)  (  4,  6,  2)
  0 -0.2383E-06  0 -0.1653E-06  0 -0.1332E-06  0 -0.9556E-07  0 -0.7355E-07
   (  4,  6,  2)  (  4, 18, 14)  (  4, 18, 14)  (  4, 18, 14)  (  3,  8,  5)
  0 -0.6147E-07  0 -0.5743E-07  0 -0.4660E-07  0 -0.3974E-07  0 -0.3037E-07
   (  3,  8,  5)  (  3,  8,  5)  (  3, 17, 17)  (  3, 17, 17)  (  3, 17, 17)
  0 -0.2187E-07  0 -0.1812E-07  0  0.1144E-07  0  0.7099E-08  0  0.5047E-08
   (  3, 17, 17)  (  3, 17, 17)  (  4, 16, 17)  (  4, 16, 17)  (  4, 19,  3)
  0  0.4140E-08  1  0.4338E-08
   (  2, 17, 17)  (  2, 17, 17)



 OUTPUT CONTROL FOR STRESS PERIOD  113   TIME STEP    1
    SAVE HEAD FOR ALL LAYERS
    SAVE DRAWDOWN FOR ALL LAYERS
    SAVE BUDGET
    PRINT BUDGET
 UBDSV1 SAVING "         STORAGE" ON UNIT   9 AT TIME STEP  1, STRESS PERIOD 113
 UBDSV2 SAVING "   CONSTANT HEAD" ON UNIT   9 AT TIME STEP  1, STRESS PERIOD 113
 UBDSV1 SAVING "FLOW RIGHT FACE " ON UNIT   9 AT TIME STEP  1, STRESS PERIOD 113
 UBDSV1 SAVING "FLOW FRONT FACE " ON UNIT   9 AT TIME STEP  1, STRESS PERIOD 113
 UBDSV1 SAVING "FLOW LOWER FACE " ON UNIT   9 AT TIME STEP  1, STRESS PERIOD 113
 UBDSV3 SAVING "        RECHARGE" ON UNIT   9 AT TIME STEP  1, STRESS PERIOD 113

 HEAD WILL BE SAVED ON UNIT   37 AT END OF TIME STEP    1, STRESS PERIOD  113

 DRAWDOWN WILL BE SAVED ON UNIT   38 AT END OF TIME STEP    1, STRESS PERIOD  113
1
  VOLUMETRIC BUDGET FOR ENTIRE MODEL AT END OF TIME STEP    1, STRESS PERIOD 113
  ------------------------------------------------------------------------------

     CUMULATIVE VOLUMES      L**3       RATES FOR THIS TIME STEP      L**3/T
     ------------------                 ------------------------

           IN:                                      IN:
           ---                                      ---
             STORAGE =       16663.5742               STORAGE =       2.1107E-03
       CONSTANT HEAD =       28972.7188         CONSTANT HEAD =       1.5851E-03
            RECHARGE =        1326.8163              RECHARGE =       9.7813E-05

            TOTAL IN =       46963.1094              TOTAL IN =       3.7936E-03

          OUT:                                     OUT:
          ----                                     ----
             STORAGE =       13922.1533               STORAGE =           0.0000
       CONSTANT HEAD =       33042.2266         CONSTANT HEAD =       3.7937E-03
            RECHARGE =           0.0000              RECHARGE =           0.0000

           TOTAL OUT =       46964.3789             TOTAL OUT =       3.7937E-03

            IN - OUT =          -1.2695              IN - OUT =      -8.9174E-08

 PERCENT DISCREPANCY =          -0.00     PERCENT DISCREPANCY =          -0.00






         TIME SUMMARY AT END OF TIME STEP    1 IN STRESS PERIOD  113
                    SECONDS     MINUTES      HOURS       DAYS        YEARS
                    -----------------------------------------------------------
   TIME STEP LENGTH  86400.      1440.0      24.000      1.0000     2.73785E-03
 STRESS PERIOD TIME  86400.      1440.0      24.000      1.0000     2.73785E-03
         TOTAL TIME 1.35648E+07 2.26080E+05  3768.0      157.00     0.42984    
1
1
                            STRESS PERIOD NO.  114, LENGTH =   86400.00    
                            -----------------------------------------------

                              NUMBER OF TIME STEPS =     1

                               MULTIPLIER FOR DELT =     1.000

                            INITIAL TIME STEP SIZE =   86400.00    

 REUSING RECH FROM LAST STRESS PERIOD

 CHD NO.   LAYER   ROW   COL    START HEAD        END HEAD         IFACE           
 ----------------------------------------------------------------------------------
      1      4      1      1       110.1           110.1           0.000    
      2      5      1      1       110.1           110.1           0.000    
      3      4      1      2       110.1           110.1           0.000    
      4      5      1      2       110.1           110.1           0.000    
      5      4      1      3       110.1           110.1           0.000    
      6      5      1      3       110.1           110.1           0.000    
      7      4      1      4       110.1           110.1           0.000    
      8      5      1      4       110.1           110.1           0.000    
      9      4      1      5       110.1           110.1           0.000    
     10      5      1      5       110.1           110.1           0.000    
     11      4      1      6       110.1           110.1           0.000    
     12      5      1      6       110.1           110.1           0.000    
     13      4      1      7       110.1           110.1           0.000    
     14      5      1      7       110.1           110.1           0.000    
     15      4      1      8       110.1           110.1           0.000    
     16      5      1      8       110.1           110.1           0.000    
     17      4      1      9       110.1           110.1           0.000    
     18      5      1      9       110.1           110.1           0.000    
     19      4      1     10       110.1           110.1           0.000    
     20      5      1     10       110.1           110.1           0.000    
     21      4      1     11       110.1           110.1           0.000    
     22      5      1     11       110.1           110.1           0.000    
     23      4      1     12       110.1           110.1           0.000    
     24      5      1     12       110.1           110.1           0.000    
     25      4      1     13       110.1           110.1           0.000    
     26      5      1     13       110.1           110.1           0.000    
     27      4      1     14       110.1           110.1           0.000    
     28      5      1     14       110.1           110.1           0.000    
     29      4      1     15       110.1           110.1           0.000    
     30      5      1     15       110.1           110.1           0.000    
     31      4      1     16       110.1           110.1           0.000    
     32      5      1     16       110.1           110.1           0.000    
     33      4      1     17       110.1           110.1           0.000    
     34      5      1     17       110.1           110.1           0.000    
     35      4     17     17       109.9           109.8           0.000    
     36      5     17     17       109.9           109.8           0.000    
     37      4     18     17       109.9           109.8           0.000    
     38      5     18     17       109.9           109.8           0.000    
     39      4     18     16       109.9           109.8           0.000    
     40      5     18     16       109.9           109.8           0.000    
     41      4     19     16       109.9           109.8           0.000    
     42      5     19     16       109.9           109.8           0.000    
     43      4     19     15       109.9           109.8           0.000    
     44      5     19     15       109.9           109.8           0.000    
     45      4     20     15       109.9           109.8           0.000    
     46      5     20     15       109.9           109.8           0.000    
     47      4     20     14       109.9           109.8           0.000    
     48      5     20     14       109.9           109.8           0.000    
     49      4     20     13       109.9           109.8           0.000    
     50      5     20     13       109.9           109.8           0.000    
     51      4     20     12       109.9           109.8           0.000    
     52      5     20     12       109.9           109.8           0.000    
     53      4     20     11       109.9           109.8           0.000    
     54      5     20     11       109.9           109.8           0.000    
     55      4     21     11       109.9           109.8           0.000    
     56      5     21     11       109.9           109.8           0.000    
     57      4     21     10       109.9           109.8           0.000    
     58      5     21     10       109.9           109.8           0.000    
     59      4     21      9       109.9           109.8           0.000    
     60      5     21      9       109.9           109.8           0.000    
     61      4     21      8       109.9           109.8           0.000    
     62      5     21      8       109.9           109.8           0.000    
     63      4     21      7       109.9           109.8           0.000    
     64      5     21      7       109.9           109.8           0.000    
     65      4     21      6       109.9           109.8           0.000    
     66      5     21      6       109.9           109.8           0.000    
     67      4     21      5       109.8           109.8           0.000    
     68      5     21      5       109.8           109.8           0.000    
     69      4     22      5       109.8           109.8           0.000    
     70      5     22      5       109.8           109.8           0.000    
     71      4     22      4       109.8           109.8           0.000    
     72      5     22      4       109.8           109.8           0.000    
     73      4     22      3       109.8           109.8           0.000    
     74      5     22      3       109.8           109.8           0.000    
     75      4     22      2       109.8           109.8           0.000    
     76      5     22      2       109.8           109.8           0.000    
     77      4     22      1       109.8           109.8           0.000    
     78      5     22      1       109.8           109.8           0.000    


     78 TIME-VARIANT SPECIFIED-HEAD CELLS

 SOLVING FOR HEAD 


     3 CALLS TO PCG ROUTINE FOR TIME STEP   1 IN STRESS PERIOD  114
    53 TOTAL ITERATIONS

 MAXIMUM HEAD CHANGE FOR EACH ITERATION (1 INDICATES THE FIRST INNER ITERATION):

    HEAD CHANGE    HEAD CHANGE    HEAD CHANGE    HEAD CHANGE    HEAD CHANGE 
   LAYER,ROW,COL  LAYER,ROW,COL  LAYER,ROW,COL  LAYER,ROW,COL  LAYER,ROW,COL
 ---------------------------------------------------------------------------
  1 -0.1242      0  0.8141E-01  0 -0.7245E-01  0 -0.5626E-01  0 -0.7237E-01
   (  5, 21,  2)  (  5, 17,  1)  (  5, 16,  2)  (  5, 17,  1)  (  5, 19,  1)
  0 -0.4531E-01  0  0.3773E-01  0  0.2698E-01  0 -0.2518E-01  0  0.1404E-01
   (  5, 20,  1)  (  5, 18,  1)  (  5, 19,  1)  (  5, 18,  1)  (  5, 18,  4)
  0 -0.1255E-01  0  0.7341E-02  0 -0.6830E-02  0 -0.5123E-02  0 -0.3032E-02
   (  5, 17,  3)  (  5, 16,  2)  (  5, 14,  1)  (  5, 12,  5)  (  5, 19,  3)
  0 -0.2448E-02  0  0.2070E-02  0  0.1398E-02  0  0.2045E-02  0  0.7642E-03
   (  5, 18,  1)  (  5, 18,  2)  (  5, 16,  1)  (  5, 19,  3)  (  5, 17,  2)
  0 -0.6732E-03  0  0.5702E-03  0 -0.5131E-03  0  0.3293E-03  0 -0.2292E-03
   (  5, 16,  1)  (  5, 17,  2)  (  5, 19,  2)  (  5, 19,  1)  (  5, 18,  1)
  0 -0.1596E-03  0 -0.1423E-03  0 -0.1003E-03  0 -0.7964E-04  0  0.4513E-04
   (  5, 20,  3)  (  5, 14,  2)  (  5, 19,  1)  (  5,  6,  1)  (  5, 15,  1)
  1 -0.8397E-04  0  0.1381E-03  0  0.1389E-03  0 -0.1210E-03  0  0.7161E-04
   (  5, 15,  1)  (  5,  6,  1)  (  5, 12,  4)  (  5, 12,  2)  (  5, 14,  3)
  0  0.8518E-04  0 -0.7102E-04  0  0.3886E-04  0  0.1966E-04  0 -0.1723E-04
   (  5, 18,  1)  (  5, 19,  1)  (  5, 20,  1)  (  5, 17,  1)  (  5, 18,  2)
  0  0.8305E-05  0 -0.1111E-04  0 -0.8287E-05  0 -0.4974E-05  0 -0.4641E-05
   (  5, 16,  3)  (  5, 16,  1)  (  5, 14,  4)  (  5, 19,  2)  (  5, 17,  5)
  0 -0.3621E-05  0 -0.2491E-05  0  0.1700E-05  0 -0.2798E-05  0  0.1476E-05
   (  5, 20,  1)  (  5, 20,  3)  (  5, 17,  1)  (  5, 18,  1)  (  5, 15,  1)
  0 -0.1322E-05  0 -0.6607E-06  1 -0.4087E-06
   (  5, 15,  2)  (  5, 17,  1)  (  5, 17,  3)

 MAXIMUM RESIDUAL FOR EACH ITERATION (1 INDICATES THE FIRST INNER ITERATION):

    RESIDUAL       RESIDUAL       RESIDUAL       RESIDUAL       RESIDUAL    
   LAYER,ROW,COL  LAYER,ROW,COL  LAYER,ROW,COL  LAYER,ROW,COL  LAYER,ROW,COL
 ---------------------------------------------------------------------------
  1  0.2982E-02  0  0.2651E-02  0  0.2348E-02  0  0.1967E-02  0  0.1550E-02
   (  3, 17, 17)  (  3, 17, 17)  (  3, 17, 17)  (  3, 17, 17)  (  3, 17, 17)
  0  0.1145E-02  0  0.7520E-03  0  0.4352E-03  0  0.2395E-03  0  0.1446E-03
   (  3, 17, 17)  (  3, 17, 17)  (  3, 17, 17)  (  3, 20, 11)  (  3, 20, 11)
  0 -0.1259E-03  0 -0.1173E-03  0  0.9524E-04  0  0.7503E-04  0  0.5842E-04
   (  4, 21,  2)  (  4, 21,  2)  (  4, 16, 17)  (  4, 16, 17)  (  4, 16, 17)
  0  0.4459E-04  0  0.3905E-04  0  0.2848E-04  0  0.1994E-04  0 -0.1402E-04
   (  4, 16, 17)  (  4, 16, 17)  (  4, 16, 17)  (  4, 16, 17)  (  3, 21,  6)
  0 -0.1276E-04  0 -0.1019E-04  0 -0.8015E-05  0 -0.6688E-05  0 -0.4336E-05
   (  3, 21,  6)  (  3, 21,  6)  (  3, 21,  6)  (  3, 21,  6)  (  3, 21,  6)
  0 -0.2649E-05  0 -0.1699E-05  0 -0.1271E-05  0 -0.5824E-06  0 -0.4972E-06
   (  3, 21,  6)  (  3, 21,  6)  (  3, 21,  6)  (  3, 21,  5)  (  3, 21,  5)
  1  0.8373E-06  0  0.9944E-06  0  0.5534E-06  0  0.3423E-06  0 -0.3375E-06
   (  2,  8,  5)  (  5,  6,  1)  (  5, 12,  4)  (  5, 11,  4)  (  4, 18, 14)
  0 -0.3291E-06  0 -0.2886E-06  0 -0.2245E-06  0 -0.1554E-06  0 -0.9246E-07
   (  4, 18, 14)  (  4, 18, 14)  (  4, 18, 14)  (  4, 18, 14)  (  4, 18, 14)
  0 -0.7791E-07  0  0.5706E-07  0  0.4238E-07  0  0.3438E-07  0  0.2784E-07
   (  4, 18, 14)  (  4, 16, 17)  (  4, 16, 17)  (  4, 16, 17)  (  4, 16, 17)
  0  0.2215E-07  0  0.1676E-07  0  0.1478E-07  0  0.1014E-07  0  0.8408E-08
   (  4, 16, 17)  (  4, 16, 17)  (  4, 16, 17)  (  4, 16, 17)  (  4, 16, 17)
  0 -0.6594E-08  0 -0.5684E-08  1 -0.4953E-08
   (  4, 20,  2)  (  4, 20,  2)  (  4, 20,  2)



 OUTPUT CONTROL FOR STRESS PERIOD  114   TIME STEP    1
    SAVE HEAD FOR ALL LAYERS
    SAVE DRAWDOWN FOR ALL LAYERS
    SAVE BUDGET
    PRINT BUDGET
 UBDSV1 SAVING "         STORAGE" ON UNIT   9 AT TIME STEP  1, STRESS PERIOD 114
 UBDSV2 SAVING "   CONSTANT HEAD" ON UNIT   9 AT TIME STEP  1, STRESS PERIOD 114
 UBDSV1 SAVING "FLOW RIGHT FACE " ON UNIT   9 AT TIME STEP  1, STRESS PERIOD 114
 UBDSV1 SAVING "FLOW FRONT FACE " ON UNIT   9 AT TIME STEP  1, STRESS PERIOD 114
 UBDSV1 SAVING "FLOW LOWER FACE " ON UNIT   9 AT TIME STEP  1, STRESS PERIOD 114
 UBDSV3 SAVING "        RECHARGE" ON UNIT   9 AT TIME STEP  1, STRESS PERIOD 114

 HEAD WILL BE SAVED ON UNIT   37 AT END OF TIME STEP    1, STRESS PERIOD  114

 DRAWDOWN WILL BE SAVED ON UNIT   38 AT END OF TIME STEP    1, STRESS PERIOD  114
1
  VOLUMETRIC BUDGET FOR ENTIRE MODEL AT END OF TIME STEP    1, STRESS PERIOD 114
  ------------------------------------------------------------------------------

     CUMULATIVE VOLUMES      L**3       RATES FOR THIS TIME STEP      L**3/T
     ------------------                 ------------------------

           IN:                                      IN:
           ---                                      ---
             STORAGE =       16847.3652               STORAGE =       2.1272E-03
       CONSTANT HEAD =       29109.6309         CONSTANT HEAD =       1.5846E-03
            RECHARGE =        1335.2673              RECHARGE =       9.7813E-05

            TOTAL IN =       47292.2617              TOTAL IN =       3.8097E-03

          OUT:                                     OUT:
          ----                                     ----
             STORAGE =       13922.1533               STORAGE =           0.0000
       CONSTANT HEAD =       33371.3867         CONSTANT HEAD =       3.8097E-03
            RECHARGE =           0.0000              RECHARGE =           0.0000

           TOTAL OUT =       47293.5391             TOTAL OUT =       3.8097E-03

            IN - OUT =          -1.2773              IN - OUT =      -7.9628E-08

 PERCENT DISCREPANCY =          -0.00     PERCENT DISCREPANCY =          -0.00






         TIME SUMMARY AT END OF TIME STEP    1 IN STRESS PERIOD  114
                    SECONDS     MINUTES      HOURS       DAYS        YEARS
                    -----------------------------------------------------------
   TIME STEP LENGTH  86400.      1440.0      24.000      1.0000     2.73785E-03
 STRESS PERIOD TIME  86400.      1440.0      24.000      1.0000     2.73785E-03
         TOTAL TIME 1.36512E+07 2.27520E+05  3792.0      158.00     0.43258    
1
1
                            STRESS PERIOD NO.  115, LENGTH =   259200.0    
                            -----------------------------------------------

                              NUMBER OF TIME STEPS =     3

                               MULTIPLIER FOR DELT =     1.000

                            INITIAL TIME STEP SIZE =   86400.00    

 REUSING RECH FROM LAST STRESS PERIOD

 CHD NO.   LAYER   ROW   COL    START HEAD        END HEAD         IFACE           
 ----------------------------------------------------------------------------------
      1      4      1      1       110.1           110.0           0.000    
      2      5      1      1       110.1           110.0           0.000    
      3      4      1      2       110.1           110.0           0.000    
      4      5      1      2       110.1           110.0           0.000    
      5      4      1      3       110.1           110.0           0.000    
      6      5      1      3       110.1           110.0           0.000    
      7      4      1      4       110.1           110.0           0.000    
      8      5      1      4       110.1           110.0           0.000    
      9      4      1      5       110.1           110.0           0.000    
     10      5      1      5       110.1           110.0           0.000    
     11      4      1      6       110.1           110.0           0.000    
     12      5      1      6       110.1           110.0           0.000    
     13      4      1      7       110.1           110.0           0.000    
     14      5      1      7       110.1           110.0           0.000    
     15      4      1      8       110.1           110.0           0.000    
     16      5      1      8       110.1           110.0           0.000    
     17      4      1      9       110.1           110.0           0.000    
     18      5      1      9       110.1           110.0           0.000    
     19      4      1     10       110.1           110.0           0.000    
     20      5      1     10       110.1           110.0           0.000    
     21      4      1     11       110.1           110.0           0.000    
     22      5      1     11       110.1           110.0           0.000    
     23      4      1     12       110.1           110.0           0.000    
     24      5      1     12       110.1           110.0           0.000    
     25      4      1     13       110.1           110.0           0.000    
     26      5      1     13       110.1           110.0           0.000    
     27      4      1     14       110.1           110.0           0.000    
     28      5      1     14       110.1           110.0           0.000    
     29      4      1     15       110.1           110.0           0.000    
     30      5      1     15       110.1           110.0           0.000    
     31      4      1     16       110.1           110.0           0.000    
     32      5      1     16       110.1           110.0           0.000    
     33      4      1     17       110.1           110.0           0.000    
     34      5      1     17       110.1           110.0           0.000    
     35      4     17     17       109.8           109.8           0.000    
     36      5     17     17       109.8           109.8           0.000    
     37      4     18     17       109.8           109.8           0.000    
     38      5     18     17       109.8           109.8           0.000    
     39      4     18     16       109.8           109.8           0.000    
     40      5     18     16       109.8           109.8           0.000    
     41      4     19     16       109.8           109.8           0.000    
     42      5     19     16       109.8           109.8           0.000    
     43      4     19     15       109.8           109.8           0.000    
     44      5     19     15       109.8           109.8           0.000    
     45      4     20     15       109.8           109.8           0.000    
     46      5     20     15       109.8           109.8           0.000    
     47      4     20     14       109.8           109.8           0.000    
     48      5     20     14       109.8           109.8           0.000    
     49      4     20     13       109.8           109.8           0.000    
     50      5     20     13       109.8           109.8           0.000    
     51      4     20     12       109.8           109.8           0.000    
     52      5     20     12       109.8           109.8           0.000    
     53      4     20     11       109.8           109.8           0.000    
     54      5     20     11       109.8           109.8           0.000    
     55      4     21     11       109.8           109.8           0.000    
     56      5     21     11       109.8           109.8           0.000    
     57      4     21     10       109.8           109.8           0.000    
     58      5     21     10       109.8           109.8           0.000    
     59      4     21      9       109.8           109.8           0.000    
     60      5     21      9       109.8           109.8           0.000    
     61      4     21      8       109.8           109.8           0.000    
     62      5     21      8       109.8           109.8           0.000    
     63      4     21      7       109.8           109.8           0.000    
     64      5     21      7       109.8           109.8           0.000    
     65      4     21      6       109.8           109.8           0.000    
     66      5     21      6       109.8           109.8           0.000    
     67      4     21      5       109.8           109.8           0.000    
     68      5     21      5       109.8           109.8           0.000    
     69      4     22      5       109.8           109.8           0.000    
     70      5     22      5       109.8           109.8           0.000    
     71      4     22      4       109.8           109.8           0.000    
     72      5     22      4       109.8           109.8           0.000    
     73      4     22      3       109.8           109.8           0.000    
     74      5     22      3       109.8           109.8           0.000    
     75      4     22      2       109.8           109.8           0.000    
     76      5     22      2       109.8           109.8           0.000    
     77      4     22      1       109.8           109.8           0.000    
     78      5     22      1       109.8           109.8           0.000    


     78 TIME-VARIANT SPECIFIED-HEAD CELLS

 SOLVING FOR HEAD 


     3 CALLS TO PCG ROUTINE FOR TIME STEP   1 IN STRESS PERIOD  115
    50 TOTAL ITERATIONS

 MAXIMUM HEAD CHANGE FOR EACH ITERATION (1 INDICATES THE FIRST INNER ITERATION):

    HEAD CHANGE    HEAD CHANGE    HEAD CHANGE    HEAD CHANGE    HEAD CHANGE 
   LAYER,ROW,COL  LAYER,ROW,COL  LAYER,ROW,COL  LAYER,ROW,COL  LAYER,ROW,COL
 ---------------------------------------------------------------------------
  1  0.3158E-01  0 -0.2647E-01  0  0.1512E-01  0 -0.1499E-01  0  0.1848E-01
   (  5, 21,  2)  (  5, 18,  1)  (  5, 16,  1)  (  5, 14,  2)  (  5, 19,  1)
  0 -0.1166E-01  0  0.7879E-02  0 -0.6398E-02  0  0.3738E-02  0  0.2474E-02
   (  5, 18,  1)  (  5, 13,  4)  (  5, 17,  3)  (  5, 18,  1)  (  5, 19,  1)
  0  0.1476E-02  0  0.1458E-02  0 -0.1537E-02  0  0.1111E-02  0 -0.9305E-03
   (  5, 18,  3)  (  5, 15,  1)  (  5, 16,  3)  (  5, 16,  4)  (  5, 20,  1)
  0 -0.6901E-03  0  0.4166E-03  0 -0.3763E-03  0 -0.3242E-03  0 -0.1728E-03
   (  5, 18,  2)  (  5, 19,  1)  (  5, 17,  1)  (  5, 19,  3)  (  5, 17,  4)
  0  0.1407E-03  0 -0.7282E-04  0 -0.8991E-04  0  0.5435E-04  0 -0.5574E-04
   (  5, 18,  5)  (  5, 15,  1)  (  5, 20,  1)  (  5, 19,  1)  (  5, 19,  2)
  0  0.4462E-04  0  0.2164E-04  0  0.1344E-04  0 -0.1539E-04  0  0.8606E-05
   (  5, 20,  3)  (  5, 14,  2)  (  5, 19,  2)  (  5, 18,  1)  (  5, 16,  2)
  1 -0.3466E-04  0 -0.3438E-04  0  0.3168E-04  0 -0.3380E-04  0 -0.2885E-04
   (  5, 16,  1)  (  2,  8,  4)  (  5, 12,  3)  (  5, 13,  2)  (  5, 18,  2)
  0  0.2720E-04  0 -0.2416E-04  0  0.1438E-04  0 -0.8817E-05  0  0.5642E-05
   (  5, 19,  1)  (  5, 19,  1)  (  5, 20,  1)  (  5, 20,  1)  (  5, 15,  1)
  0 -0.4585E-05  0  0.3360E-05  0 -0.2747E-05  0  0.2101E-05  0  0.1593E-05
   (  5, 16,  1)  (  5, 18,  3)  (  5, 16,  3)  (  5, 14,  4)  (  5, 20,  3)
  0  0.1301E-05  0  0.1038E-05  0 -0.1002E-05  0  0.6635E-06  1  0.3908E-06
   (  5, 14,  5)  (  5, 18,  1)  (  5, 19,  3)  (  5, 20,  3)  (  5, 18,  1)

 MAXIMUM RESIDUAL FOR EACH ITERATION (1 INDICATES THE FIRST INNER ITERATION):

    RESIDUAL       RESIDUAL       RESIDUAL       RESIDUAL       RESIDUAL    
   LAYER,ROW,COL  LAYER,ROW,COL  LAYER,ROW,COL  LAYER,ROW,COL  LAYER,ROW,COL
 ---------------------------------------------------------------------------
  1 -0.2837E-03  0 -0.2241E-03  0 -0.1895E-03  0 -0.1450E-03  0 -0.9154E-04
   (  3, 17, 17)  (  3, 17, 17)  (  3, 17, 17)  (  3, 20, 11)  (  3, 20, 11)
  0 -0.5799E-04  0 -0.3740E-04  0  0.2650E-04  0  0.2395E-04  0  0.2039E-04
   (  5, 15, 17)  (  5, 15, 17)  (  4, 20,  1)  (  4, 21,  2)  (  4, 21,  2)
  0  0.1519E-04  0 -0.1271E-04  0 -0.1044E-04  0 -0.8185E-05  0  0.6393E-05
   (  4, 21,  2)  (  4, 16, 17)  (  4, 16, 17)  (  5,  3, 17)  (  4, 21,  1)
  0  0.5347E-05  0 -0.4396E-05  0  0.3021E-05  0 -0.2446E-05  0 -0.2219E-05
   (  4, 21,  1)  (  5,  2, 17)  (  4,  3, 17)  (  4, 21,  2)  (  4, 21,  2)
  0 -0.1757E-05  0 -0.1617E-05  0 -0.1184E-05  0 -0.1052E-05  0  0.6473E-06
   (  4, 21,  2)  (  4, 21,  2)  (  4, 21,  2)  (  4, 21,  2)  (  5, 16, 17)
  0  0.4402E-06  0  0.2826E-06  0  0.2511E-06  0  0.1590E-06  0  0.9550E-07
   (  5, 16, 17)  (  5, 16, 17)  (  5, 16, 17)  (  5, 16, 17)  (  5, 16, 17)
  1  0.2944E-06  0  0.2397E-06  0  0.1773E-06  0  0.1316E-06  0  0.9087E-07
   (  2,  8,  5)  (  2,  8,  5)  (  2,  8,  5)  (  2,  8,  5)  (  2,  8,  5)
  0 -0.6703E-07  0  0.5490E-07  0 -0.4123E-07  0 -0.3329E-07  0 -0.2704E-07
   (  3,  8,  5)  (  5,  3, 10)  (  3,  8,  5)  (  3,  8,  5)  (  3,  8,  5)
  0 -0.2462E-07  0 -0.2273E-07  0 -0.1845E-07  0 -0.1408E-07  0 -0.9835E-08
   (  3,  8,  5)  (  3,  8,  5)  (  3,  8,  5)  (  3,  8,  5)  (  3,  8,  5)
  0 -0.6562E-08  0 -0.5649E-08  0 -0.3931E-08  0  0.2363E-08  1 -0.2493E-08
   (  3,  8,  5)  (  3,  8,  5)  (  3,  8,  5)  (  4, 20,  2)  (  3,  8,  5)



 OUTPUT CONTROL FOR STRESS PERIOD  115   TIME STEP    1
    SAVE HEAD FOR ALL LAYERS
    SAVE DRAWDOWN FOR ALL LAYERS
    SAVE BUDGET
    PRINT BUDGET
 UBDSV1 SAVING "         STORAGE" ON UNIT   9 AT TIME STEP  1, STRESS PERIOD 115
 UBDSV2 SAVING "   CONSTANT HEAD" ON UNIT   9 AT TIME STEP  1, STRESS PERIOD 115
 UBDSV1 SAVING "FLOW RIGHT FACE " ON UNIT   9 AT TIME STEP  1, STRESS PERIOD 115
 UBDSV1 SAVING "FLOW FRONT FACE " ON UNIT   9 AT TIME STEP  1, STRESS PERIOD 115
 UBDSV1 SAVING "FLOW LOWER FACE " ON UNIT   9 AT TIME STEP  1, STRESS PERIOD 115
 UBDSV3 SAVING "        RECHARGE" ON UNIT   9 AT TIME STEP  1, STRESS PERIOD 115

 HEAD WILL BE SAVED ON UNIT   37 AT END OF TIME STEP    1, STRESS PERIOD  115

 DRAWDOWN WILL BE SAVED ON UNIT   38 AT END OF TIME STEP    1, STRESS PERIOD  115
1
  VOLUMETRIC BUDGET FOR ENTIRE MODEL AT END OF TIME STEP    1, STRESS PERIOD 115
  ------------------------------------------------------------------------------

     CUMULATIVE VOLUMES      L**3       RATES FOR THIS TIME STEP      L**3/T
     ------------------                 ------------------------

           IN:                                      IN:
           ---                                      ---
             STORAGE =       16917.6758               STORAGE =       8.1378E-04
       CONSTANT HEAD =       29266.4160         CONSTANT HEAD =       1.8146E-03
            RECHARGE =        1343.7184              RECHARGE =       9.7813E-05

            TOTAL IN =       47527.8125              TOTAL IN =       2.7262E-03

          OUT:                                     OUT:
          ----                                     ----
             STORAGE =       13922.4463               STORAGE =       3.3878E-06
       CONSTANT HEAD =       33606.6484         CONSTANT HEAD =       2.7229E-03
            RECHARGE =           0.0000              RECHARGE =           0.0000

           TOTAL OUT =       47529.0938             TOTAL OUT =       2.7263E-03

            IN - OUT =          -1.2812              IN - OUT =      -9.6392E-08

 PERCENT DISCREPANCY =          -0.00     PERCENT DISCREPANCY =          -0.00






         TIME SUMMARY AT END OF TIME STEP    1 IN STRESS PERIOD  115
                    SECONDS     MINUTES      HOURS       DAYS        YEARS
                    -----------------------------------------------------------
   TIME STEP LENGTH  86400.      1440.0      24.000      1.0000     2.73785E-03
 STRESS PERIOD TIME  86400.      1440.0      24.000      1.0000     2.73785E-03
         TOTAL TIME 1.37376E+07 2.28960E+05  3816.0      159.00     0.43532    
1

 SOLVING FOR HEAD 
     3 CALLS TO PCG ROUTINE FOR TIME STEP   2 IN STRESS PERIOD  115
    46 TOTAL ITERATIONS

 MAXIMUM HEAD CHANGE FOR EACH ITERATION (1 INDICATES THE FIRST INNER ITERATION):

    HEAD CHANGE    HEAD CHANGE    HEAD CHANGE    HEAD CHANGE    HEAD CHANGE 
   LAYER,ROW,COL  LAYER,ROW,COL  LAYER,ROW,COL  LAYER,ROW,COL  LAYER,ROW,COL
 ---------------------------------------------------------------------------
  1  0.2742E-01  0 -0.2084E-01  0  0.1379E-01  0 -0.1274E-01  0  0.1479E-01
   (  5, 21,  2)  (  5, 18,  1)  (  5, 16,  2)  (  5, 21,  2)  (  5, 19,  1)
  0 -0.7251E-02  0 -0.6028E-02  0 -0.4890E-02  0  0.2825E-02  0 -0.2243E-02
   (  5, 18,  1)  (  5, 18,  1)  (  5, 17,  3)  (  5, 18,  1)  (  5, 18,  3)
  0  0.1477E-02  0 -0.2039E-02  0  0.1115E-02  0  0.9011E-03  0 -0.8183E-03
   (  5, 14,  4)  (  5, 16,  3)  (  5, 15,  1)  (  5, 12,  5)  (  5, 20,  1)
  0  0.4879E-03  0 -0.5957E-03  0 -0.2921E-03  0 -0.2915E-03  0 -0.1536E-03
   (  5, 18,  1)  (  5, 18,  2)  (  5, 16,  3)  (  5, 19,  3)  (  5, 17,  2)
  0  0.9875E-04  0 -0.1027E-03  0 -0.7646E-04  0  0.7945E-04  0 -0.3689E-04
   (  5, 16,  1)  (  5, 15,  1)  (  5, 19,  1)  (  5, 19,  2)  (  5, 19,  2)
  0  0.3519E-04  0 -0.1872E-04  0 -0.2128E-04  0  0.1041E-04  0 -0.7185E-05
   (  5, 20,  3)  (  5, 17,  1)  (  5, 15,  4)  (  5,  6,  1)  (  5, 15,  1)
  1  0.1990E-04  0 -0.2396E-04  0  0.1512E-04  0 -0.2007E-04  0 -0.1556E-04
   (  5, 16,  2)  (  5, 16,  1)  (  5, 12,  3)  (  5, 13,  3)  (  5, 18,  1)
  0  0.1342E-04  0 -0.1197E-04  0  0.8772E-05  0 -0.7159E-05  0 -0.3677E-05
   (  5, 19,  1)  (  5, 19,  1)  (  5, 20,  1)  (  5, 20,  1)  (  5, 19,  3)
  0  0.3005E-05  0 -0.3063E-05  0  0.1859E-05  0  0.1660E-05  0  0.9813E-06
   (  5, 18,  3)  (  5, 16,  1)  (  5, 14,  1)  (  5, 17,  5)  (  5, 12,  1)
  1  0.6726E-06
   (  5, 15,  4)

 MAXIMUM RESIDUAL FOR EACH ITERATION (1 INDICATES THE FIRST INNER ITERATION):

    RESIDUAL       RESIDUAL       RESIDUAL       RESIDUAL       RESIDUAL    
   LAYER,ROW,COL  LAYER,ROW,COL  LAYER,ROW,COL  LAYER,ROW,COL  LAYER,ROW,COL
 ---------------------------------------------------------------------------
  1 -0.3146E-03  0 -0.2527E-03  0 -0.2099E-03  0 -0.1577E-03  0 -0.1059E-03
   (  3, 17, 17)  (  3, 17, 17)  (  3, 17, 17)  (  3, 17, 17)  (  3, 20, 11)
  0 -0.7100E-04  0 -0.4044E-04  0 -0.2066E-04  0  0.2117E-04  0  0.1953E-04
   (  3, 20, 11)  (  3, 20, 11)  (  3, 20, 11)  (  4, 21,  2)  (  4, 21,  2)
  0  0.1544E-04  0 -0.1287E-04  0 -0.1134E-04  0 -0.8393E-05  0 -0.5694E-05
   (  4, 21,  2)  (  4, 16, 17)  (  4, 16, 17)  (  4, 16, 17)  (  4, 16, 17)
  0 -0.4921E-05  0  0.3874E-05  0  0.3039E-05  0  0.2390E-05  0  0.1780E-05
   (  4, 16, 17)  (  3, 21,  6)  (  3, 21,  6)  (  3, 21,  6)  (  3, 21,  6)
  0  0.1644E-05  0  0.1247E-05  0  0.1027E-05  0  0.7466E-06  0  0.4975E-06
   (  3, 21,  6)  (  3, 21,  6)  (  3, 21,  6)  (  3, 21,  6)  (  5, 16, 17)
  0  0.3491E-06  0  0.3130E-06  0  0.2025E-06  0  0.1228E-06  0  0.1125E-06
   (  5, 16, 17)  (  5, 16, 17)  (  5, 16, 17)  (  5, 16, 17)  (  5, 16, 17)
  1 -0.1454E-06  0 -0.1229E-06  0 -0.9514E-07  0 -0.7549E-07  0  0.7556E-07
   (  2,  2,  8)  (  2,  2,  8)  (  2,  2,  8)  (  2,  2,  8)  (  5,  6,  1)
  0  0.4401E-07  0  0.3514E-07  0 -0.2532E-07  0  0.2635E-07  0  0.1847E-07
   (  5,  3,  8)  (  4, 21,  1)  (  5, 16, 17)  (  4, 21,  1)  (  4, 21,  1)
  0  0.1363E-07  0  0.1243E-07  0  0.1119E-07  0 -0.7640E-08  0 -0.5028E-08
   (  4, 21,  1)  (  4, 21,  1)  (  4, 21,  1)  (  4, 20,  2)  (  4, 20,  2)
  1 -0.4811E-08
   (  3,  8,  5)



 OUTPUT CONTROL FOR STRESS PERIOD  115   TIME STEP    2
    SAVE HEAD FOR ALL LAYERS
    SAVE DRAWDOWN FOR ALL LAYERS
    SAVE BUDGET
    PRINT BUDGET
 UBDSV1 SAVING "         STORAGE" ON UNIT   9 AT TIME STEP  2, STRESS PERIOD 115
 UBDSV2 SAVING "   CONSTANT HEAD" ON UNIT   9 AT TIME STEP  2, STRESS PERIOD 115
 UBDSV1 SAVING "FLOW RIGHT FACE " ON UNIT   9 AT TIME STEP  2, STRESS PERIOD 115
 UBDSV1 SAVING "FLOW FRONT FACE " ON UNIT   9 AT TIME STEP  2, STRESS PERIOD 115
 UBDSV1 SAVING "FLOW LOWER FACE " ON UNIT   9 AT TIME STEP  2, STRESS PERIOD 115
 UBDSV3 SAVING "        RECHARGE" ON UNIT   9 AT TIME STEP  2, STRESS PERIOD 115

 HEAD WILL BE SAVED ON UNIT   37 AT END OF TIME STEP    2, STRESS PERIOD  115

 DRAWDOWN WILL BE SAVED ON UNIT   38 AT END OF TIME STEP    2, STRESS PERIOD  115
1
  VOLUMETRIC BUDGET FOR ENTIRE MODEL AT END OF TIME STEP    2, STRESS PERIOD 115
  ------------------------------------------------------------------------------

     CUMULATIVE VOLUMES      L**3       RATES FOR THIS TIME STEP      L**3/T
     ------------------                 ------------------------

           IN:                                      IN:
           ---                                      ---
             STORAGE =       16955.7012               STORAGE =       4.4012E-04
       CONSTANT HEAD =       29413.2227         CONSTANT HEAD =       1.6992E-03
            RECHARGE =        1352.1694              RECHARGE =       9.7813E-05

            TOTAL IN =       47721.0898              TOTAL IN =       2.2371E-03

          OUT:                                     OUT:
          ----                                     ----
             STORAGE =       13923.5508               STORAGE =       1.2789E-05
       CONSTANT HEAD =       33798.8359         CONSTANT HEAD =       2.2244E-03
            RECHARGE =           0.0000              RECHARGE =           0.0000

           TOTAL OUT =       47722.3867             TOTAL OUT =       2.2372E-03

            IN - OUT =          -1.2969              IN - OUT =      -9.4762E-08

 PERCENT DISCREPANCY =          -0.00     PERCENT DISCREPANCY =          -0.00






         TIME SUMMARY AT END OF TIME STEP    2 IN STRESS PERIOD  115
                    SECONDS     MINUTES      HOURS       DAYS        YEARS
                    -----------------------------------------------------------
   TIME STEP LENGTH  86400.      1440.0      24.000      1.0000     2.73785E-03
 STRESS PERIOD TIME 1.72800E+05  2880.0      48.000      2.0000     5.47570E-03
         TOTAL TIME 1.38240E+07 2.30400E+05  3840.0      160.00     0.43806    
1

 SOLVING FOR HEAD 
     3 CALLS TO PCG ROUTINE FOR TIME STEP   3 IN STRESS PERIOD  115
    46 TOTAL ITERATIONS

 MAXIMUM HEAD CHANGE FOR EACH ITERATION (1 INDICATES THE FIRST INNER ITERATION):

    HEAD CHANGE    HEAD CHANGE    HEAD CHANGE    HEAD CHANGE    HEAD CHANGE 
   LAYER,ROW,COL  LAYER,ROW,COL  LAYER,ROW,COL  LAYER,ROW,COL  LAYER,ROW,COL
 ---------------------------------------------------------------------------
  1  0.2641E-01  0 -0.1915E-01  0  0.1347E-01  0 -0.1195E-01  0  0.1335E-01
   (  5, 21,  2)  (  5, 18,  1)  (  5, 16,  2)  (  5, 21,  2)  (  5, 19,  1)
  0 -0.6463E-02  0 -0.5926E-02  0 -0.4671E-02  0  0.2822E-02  0 -0.2303E-02
   (  5, 13,  3)  (  5, 18,  1)  (  5, 17,  3)  (  5, 18,  1)  (  5, 18,  3)
  0  0.1459E-02  0 -0.2063E-02  0  0.8011E-03  0 -0.8507E-03  0 -0.6928E-03
   (  5, 17,  3)  (  5, 16,  3)  (  5, 15,  1)  (  5, 17,  2)  (  5, 11,  4)
  0 -0.6268E-03  0  0.2971E-03  0 -0.3420E-03  0 -0.3069E-03  0  0.1420E-03
   (  5, 18,  2)  (  5, 19,  1)  (  5, 16,  1)  (  5, 19,  3)  (  5, 18,  3)
  0  0.1181E-03  0 -0.8029E-04  0  0.8063E-04  0  0.7029E-04  0  0.3421E-04
   (  5, 20,  1)  (  5, 19,  1)  (  5, 16,  2)  (  5, 19,  2)  (  5, 18,  5)
  0  0.2916E-04  0 -0.1663E-04  0  0.1149E-04  0 -0.1683E-04  0 -0.9375E-05
   (  5, 20,  3)  (  5, 15,  4)  (  5, 19,  2)  (  5, 18,  1)  (  5,  6,  1)
  1  0.1365E-04  0 -0.1666E-04  0  0.1648E-04  0 -0.1372E-04  0 -0.1622E-04
   (  5, 17,  2)  (  5, 15,  2)  (  5, 20,  1)  (  5, 13,  2)  (  5, 19,  1)
  0  0.9263E-05  0 -0.7674E-05  0  0.7413E-05  0  0.3465E-05  0  0.2799E-05
   (  5, 19,  1)  (  5, 13,  3)  (  5, 11,  4)  (  5, 18,  2)  (  5, 15,  1)
  0 -0.2719E-05  0  0.1453E-05  0 -0.1552E-05  0  0.1066E-05  0  0.7659E-06
   (  5, 16,  1)  (  5, 14,  1)  (  5, 16,  3)  (  5, 14,  4)  (  5, 19,  3)
  1  0.5025E-06
   (  5, 18,  1)

 MAXIMUM RESIDUAL FOR EACH ITERATION (1 INDICATES THE FIRST INNER ITERATION):

    RESIDUAL       RESIDUAL       RESIDUAL       RESIDUAL       RESIDUAL    
   LAYER,ROW,COL  LAYER,ROW,COL  LAYER,ROW,COL  LAYER,ROW,COL  LAYER,ROW,COL
 ---------------------------------------------------------------------------
  1 -0.3215E-03  0 -0.2620E-03  0 -0.2186E-03  0 -0.1682E-03  0 -0.1180E-03
   (  3, 17, 17)  (  3, 17, 17)  (  3, 17, 17)  (  3, 17, 17)  (  3, 17, 17)
  0 -0.8303E-04  0 -0.5208E-04  0 -0.2955E-04  0  0.1943E-04  0  0.1847E-04
   (  3, 20, 11)  (  3, 20, 11)  (  3, 20, 11)  (  4, 21,  2)  (  4, 21,  2)
  0  0.1493E-04  0 -0.1162E-04  0 -0.1088E-04  0 -0.8173E-05  0 -0.5592E-05
   (  4, 21,  2)  (  4, 16, 17)  (  4, 16, 17)  (  4, 16, 17)  (  4, 16, 17)
  0  0.3894E-05  0  0.3673E-05  0  0.2987E-05  0  0.2379E-05  0  0.1779E-05
   (  3, 21,  6)  (  3, 21,  6)  (  3, 21,  6)  (  3, 21,  6)  (  3, 21,  6)
  0  0.1431E-05  0  0.1231E-05  0  0.1109E-05  0  0.7757E-06  0  0.4610E-06
   (  3, 21,  6)  (  3, 21,  6)  (  3, 21,  6)  (  3, 21,  6)  (  3, 21,  5)
  0  0.3007E-06  0  0.1908E-06  0  0.1643E-06  0  0.1083E-06  0  0.6995E-07
   (  5, 16, 17)  (  5, 16, 17)  (  5, 16, 17)  (  4, 20,  2)  (  3, 20, 11)
  1 -0.1163E-06  0 -0.9762E-07  0 -0.7698E-07  0 -0.6175E-07  0 -0.4826E-07
   (  2,  2,  8)  (  2,  2,  8)  (  2,  2,  8)  (  2,  2,  8)  (  2,  2,  8)
  0  0.3722E-07  0  0.2910E-07  0  0.1939E-07  0  0.1937E-07  0  0.1381E-07
   (  5,  4, 17)  (  5,  6,  1)  (  4, 21,  1)  (  4, 21,  1)  (  4, 21,  1)
  0  0.1100E-07  0 -0.9687E-08  0  0.8530E-08  0  0.5574E-08  0 -0.3628E-08
   (  4, 21,  1)  (  4, 21,  3)  (  4, 21,  1)  (  4, 21,  1)  (  4, 21,  2)
  1 -0.3257E-08
   (  4, 20,  2)



 OUTPUT CONTROL FOR STRESS PERIOD  115   TIME STEP    3
    SAVE HEAD FOR ALL LAYERS
    SAVE DRAWDOWN FOR ALL LAYERS
    SAVE BUDGET
    PRINT BUDGET
 UBDSV1 SAVING "         STORAGE" ON UNIT   9 AT TIME STEP  3, STRESS PERIOD 115
 UBDSV2 SAVING "   CONSTANT HEAD" ON UNIT   9 AT TIME STEP  3, STRESS PERIOD 115
 UBDSV1 SAVING "FLOW RIGHT FACE " ON UNIT   9 AT TIME STEP  3, STRESS PERIOD 115
 UBDSV1 SAVING "FLOW FRONT FACE " ON UNIT   9 AT TIME STEP  3, STRESS PERIOD 115
 UBDSV1 SAVING "FLOW LOWER FACE " ON UNIT   9 AT TIME STEP  3, STRESS PERIOD 115
 UBDSV3 SAVING "        RECHARGE" ON UNIT   9 AT TIME STEP  3, STRESS PERIOD 115

 HEAD WILL BE SAVED ON UNIT   37 AT END OF TIME STEP    3, STRESS PERIOD  115

 DRAWDOWN WILL BE SAVED ON UNIT   38 AT END OF TIME STEP    3, STRESS PERIOD  115
1
  VOLUMETRIC BUDGET FOR ENTIRE MODEL AT END OF TIME STEP    3, STRESS PERIOD 115
  ------------------------------------------------------------------------------

     CUMULATIVE VOLUMES      L**3       RATES FOR THIS TIME STEP      L**3/T
     ------------------                 ------------------------

           IN:                                      IN:
           ---                                      ---
             STORAGE =       16983.8594               STORAGE =       3.2590E-04
       CONSTANT HEAD =       29540.5605         CONSTANT HEAD =       1.4738E-03
            RECHARGE =        1360.6205              RECHARGE =       9.7813E-05

            TOTAL IN =       47885.0430              TOTAL IN =       1.8975E-03

          OUT:                                     OUT:
          ----                                     ----
             STORAGE =       13925.5137               STORAGE =       2.2724E-05
       CONSTANT HEAD =       33960.8281         CONSTANT HEAD =       1.8749E-03
            RECHARGE =           0.0000              RECHARGE =           0.0000

           TOTAL OUT =       47886.3438             TOTAL OUT =       1.8976E-03

            IN - OUT =          -1.3008              IN - OUT =      -9.7905E-08

 PERCENT DISCREPANCY =          -0.00     PERCENT DISCREPANCY =          -0.01






         TIME SUMMARY AT END OF TIME STEP    3 IN STRESS PERIOD  115
                    SECONDS     MINUTES      HOURS       DAYS        YEARS
                    -----------------------------------------------------------
   TIME STEP LENGTH  86400.      1440.0      24.000      1.0000     2.73785E-03
 STRESS PERIOD TIME 2.59200E+05  4320.0      72.000      3.0000     8.21355E-03
         TOTAL TIME 1.39104E+07 2.31840E+05  3864.0      161.00     0.44079    
1
1
                            STRESS PERIOD NO.  116, LENGTH =   86400.00    
                            -----------------------------------------------

                              NUMBER OF TIME STEPS =     1

                               MULTIPLIER FOR DELT =     1.000

                            INITIAL TIME STEP SIZE =   86400.00    

 REUSING RECH FROM LAST STRESS PERIOD

 CHD NO.   LAYER   ROW   COL    START HEAD        END HEAD         IFACE           
 ----------------------------------------------------------------------------------
      1      4      1      1       110.0           110.0           0.000    
      2      5      1      1       110.0           110.0           0.000    
      3      4      1      2       110.0           110.0           0.000    
      4      5      1      2       110.0           110.0           0.000    
      5      4      1      3       110.0           110.0           0.000    
      6      5      1      3       110.0           110.0           0.000    
      7      4      1      4       110.0           110.0           0.000    
      8      5      1      4       110.0           110.0           0.000    
      9      4      1      5       110.0           110.0           0.000    
     10      5      1      5       110.0           110.0           0.000    
     11      4      1      6       110.0           110.0           0.000    
     12      5      1      6       110.0           110.0           0.000    
     13      4      1      7       110.0           110.0           0.000    
     14      5      1      7       110.0           110.0           0.000    
     15      4      1      8       110.0           110.0           0.000    
     16      5      1      8       110.0           110.0           0.000    
     17      4      1      9       110.0           110.0           0.000    
     18      5      1      9       110.0           110.0           0.000    
     19      4      1     10       110.0           110.0           0.000    
     20      5      1     10       110.0           110.0           0.000    
     21      4      1     11       110.0           110.0           0.000    
     22      5      1     11       110.0           110.0           0.000    
     23      4      1     12       110.0           110.0           0.000    
     24      5      1     12       110.0           110.0           0.000    
     25      4      1     13       110.0           110.0           0.000    
     26      5      1     13       110.0           110.0           0.000    
     27      4      1     14       110.0           110.0           0.000    
     28      5      1     14       110.0           110.0           0.000    
     29      4      1     15       110.0           110.0           0.000    
     30      5      1     15       110.0           110.0           0.000    
     31      4      1     16       110.0           110.0           0.000    
     32      5      1     16       110.0           110.0           0.000    
     33      4      1     17       110.0           110.0           0.000    
     34      5      1     17       110.0           110.0           0.000    
     35      4     17     17       109.8           109.8           0.000    
     36      5     17     17       109.8           109.8           0.000    
     37      4     18     17       109.8           109.8           0.000    
     38      5     18     17       109.8           109.8           0.000    
     39      4     18     16       109.8           109.8           0.000    
     40      5     18     16       109.8           109.8           0.000    
     41      4     19     16       109.8           109.8           0.000    
     42      5     19     16       109.8           109.8           0.000    
     43      4     19     15       109.8           109.8           0.000    
     44      5     19     15       109.8           109.8           0.000    
     45      4     20     15       109.8           109.8           0.000    
     46      5     20     15       109.8           109.8           0.000    
     47      4     20     14       109.8           109.8           0.000    
     48      5     20     14       109.8           109.8           0.000    
     49      4     20     13       109.8           109.8           0.000    
     50      5     20     13       109.8           109.8           0.000    
     51      4     20     12       109.8           109.8           0.000    
     52      5     20     12       109.8           109.8           0.000    
     53      4     20     11       109.8           109.8           0.000    
     54      5     20     11       109.8           109.8           0.000    
     55      4     21     11       109.8           109.8           0.000    
     56      5     21     11       109.8           109.8           0.000    
     57      4     21     10       109.8           109.8           0.000    
     58      5     21     10       109.8           109.8           0.000    
     59      4     21      9       109.8           109.8           0.000    
     60      5     21      9       109.8           109.8           0.000    
     61      4     21      8       109.8           109.8           0.000    
     62      5     21      8       109.8           109.8           0.000    
     63      4     21      7       109.8           109.8           0.000    
     64      5     21      7       109.8           109.8           0.000    
     65      4     21      6       109.8           109.8           0.000    
     66      5     21      6       109.8           109.8           0.000    
     67      4     21      5       109.8           109.8           0.000    
     68      5     21      5       109.8           109.8           0.000    
     69      4     22      5       109.8           109.8           0.000    
     70      5     22      5       109.8           109.8           0.000    
     71      4     22      4       109.8           109.8           0.000    
     72      5     22      4       109.8           109.8           0.000    
     73      4     22      3       109.8           109.8           0.000    
     74      5     22      3       109.8           109.8           0.000    
     75      4     22      2       109.8           109.8           0.000    
     76      5     22      2       109.8           109.8           0.000    
     77      4     22      1       109.8           109.8           0.000    
     78      5     22      1       109.8           109.8           0.000    


     78 TIME-VARIANT SPECIFIED-HEAD CELLS

 SOLVING FOR HEAD 


     3 CALLS TO PCG ROUTINE FOR TIME STEP   1 IN STRESS PERIOD  116
    41 TOTAL ITERATIONS

 MAXIMUM HEAD CHANGE FOR EACH ITERATION (1 INDICATES THE FIRST INNER ITERATION):

    HEAD CHANGE    HEAD CHANGE    HEAD CHANGE    HEAD CHANGE    HEAD CHANGE 
   LAYER,ROW,COL  LAYER,ROW,COL  LAYER,ROW,COL  LAYER,ROW,COL  LAYER,ROW,COL
 ---------------------------------------------------------------------------
  1 -0.2855E-02  0  0.1247E-02  0 -0.1326E-02  0  0.1192E-02  0 -0.1422E-02
   (  5,  6,  1)  (  5, 13,  2)  (  5, 15,  2)  (  5, 17,  1)  (  5, 18,  1)
  0  0.1197E-02  0 -0.1227E-02  0  0.8423E-03  0 -0.6979E-03  0 -0.3816E-03
   (  5, 19,  1)  (  5, 19,  1)  (  5, 20,  1)  (  5, 20,  1)  (  5, 19,  3)
  0  0.2737E-03  0 -0.1608E-03  0 -0.1122E-03  0  0.1525E-03  0 -0.7655E-04
   (  5, 18,  4)  (  5, 17,  4)  (  5, 14,  1)  (  5, 16,  1)  (  5, 17,  1)
  0  0.6592E-04  0 -0.4128E-04  0  0.4326E-04  0 -0.3592E-04  0  0.1898E-04
   (  5, 18,  1)  (  5, 19,  2)  (  5, 17,  1)  (  5, 18,  1)  (  5, 16,  6)
  0 -0.2296E-04  0  0.1188E-04  0 -0.1272E-04  0  0.9602E-05  0 -0.7362E-05
   (  5, 16,  5)  (  5, 16,  2)  (  5, 18,  1)  (  5, 20,  2)  (  5, 20,  2)
  0 -0.4620E-05  0  0.3180E-05  0 -0.1794E-05  0 -0.1175E-05  0 -0.7797E-06
   (  5, 12,  1)  (  5, 17,  5)  (  5, 14,  1)  (  5, 18,  1)  (  5, 16,  4)
  1 -0.3762E-05  0  0.2799E-05  0  0.2920E-05  0 -0.3526E-05  0  0.2355E-05
   (  2,  8,  3)  (  5, 12,  3)  (  5, 17,  1)  (  5, 17,  1)  (  5, 14,  1)
  0 -0.2506E-05  0 -0.2526E-05  0  0.1413E-05  0 -0.1001E-05  0  0.4947E-06
   (  5, 16,  3)  (  5, 19,  1)  (  5, 20,  1)  (  5, 20,  1)  (  5, 20,  1)
  1  0.4870E-06
   (  5, 19,  3)

 MAXIMUM RESIDUAL FOR EACH ITERATION (1 INDICATES THE FIRST INNER ITERATION):

    RESIDUAL       RESIDUAL       RESIDUAL       RESIDUAL       RESIDUAL    
   LAYER,ROW,COL  LAYER,ROW,COL  LAYER,ROW,COL  LAYER,ROW,COL  LAYER,ROW,COL
 ---------------------------------------------------------------------------
  1  0.5221E-05  0  0.5915E-05  0  0.6332E-05  0  0.6542E-05  0  0.6371E-05
   (  5,  3, 17)  (  5,  3, 17)  (  5,  3, 17)  (  5,  3, 17)  (  5,  3, 17)
  0  0.6344E-05  0 -0.5752E-05  0  0.4578E-05  0  0.3095E-05  0  0.1885E-05
   (  5,  2, 17)  (  5, 16, 17)  (  5,  2, 17)  (  5,  2, 17)  (  5,  2, 17)
  0  0.1138E-05  0  0.9759E-06  0  0.9459E-06  0  0.8759E-06  0  0.6978E-06
   (  5,  2, 17)  (  4,  4, 17)  (  4,  4, 17)  (  4,  4, 17)  (  4,  4, 17)
  0  0.4701E-06  0  0.4218E-06  0  0.3817E-06  0  0.2910E-06  0 -0.1758E-06
   (  4,  4, 17)  (  4,  3, 17)  (  4,  3, 17)  (  4,  3, 17)  (  4, 21,  2)
  0 -0.1107E-06  0 -0.9310E-07  0 -0.8102E-07  0  0.7173E-07  0 -0.4315E-07
   (  4, 21,  2)  (  5,  4, 17)  (  5,  4, 17)  (  4, 19,  2)  (  5,  3, 17)
  0 -0.3215E-07  0  0.2715E-07  0  0.1071E-07  0 -0.9740E-08  0 -0.8110E-08
   (  5,  3, 17)  (  4, 20,  2)  (  4, 20,  2)  (  3, 17, 17)  (  4, 20,  3)
  1  0.2434E-07  0  0.2030E-07  0  0.1624E-07  0  0.1253E-07  0  0.1062E-07
   (  2,  8,  5)  (  2,  8,  5)  (  2,  8,  5)  (  2,  8,  5)  (  2,  8,  5)
  0  0.7603E-08  0  0.6259E-08  0  0.4789E-08  0 -0.3151E-08  0 -0.2599E-08
   (  2,  8,  5)  (  5,  3, 10)  (  5,  3, 10)  (  3,  8,  5)  (  3,  8,  5)
  1 -0.2480E-08
   (  3,  8,  5)



 OUTPUT CONTROL FOR STRESS PERIOD  116   TIME STEP    1
    SAVE HEAD FOR ALL LAYERS
    SAVE DRAWDOWN FOR ALL LAYERS
    SAVE BUDGET
    PRINT BUDGET
 UBDSV1 SAVING "         STORAGE" ON UNIT   9 AT TIME STEP  1, STRESS PERIOD 116
 UBDSV2 SAVING "   CONSTANT HEAD" ON UNIT   9 AT TIME STEP  1, STRESS PERIOD 116
 UBDSV1 SAVING "FLOW RIGHT FACE " ON UNIT   9 AT TIME STEP  1, STRESS PERIOD 116
 UBDSV1 SAVING "FLOW FRONT FACE " ON UNIT   9 AT TIME STEP  1, STRESS PERIOD 116
 UBDSV1 SAVING "FLOW LOWER FACE " ON UNIT   9 AT TIME STEP  1, STRESS PERIOD 116
 UBDSV3 SAVING "        RECHARGE" ON UNIT   9 AT TIME STEP  1, STRESS PERIOD 116

 HEAD WILL BE SAVED ON UNIT   37 AT END OF TIME STEP    1, STRESS PERIOD  116

 DRAWDOWN WILL BE SAVED ON UNIT   38 AT END OF TIME STEP    1, STRESS PERIOD  116
1
  VOLUMETRIC BUDGET FOR ENTIRE MODEL AT END OF TIME STEP    1, STRESS PERIOD 116
  ------------------------------------------------------------------------------

     CUMULATIVE VOLUMES      L**3       RATES FOR THIS TIME STEP      L**3/T
     ------------------                 ------------------------

           IN:                                      IN:
           ---                                      ---
             STORAGE =       16992.5508               STORAGE =       1.0058E-04
       CONSTANT HEAD =       29680.9023         CONSTANT HEAD =       1.6243E-03
            RECHARGE =        1369.0715              RECHARGE =       9.7813E-05

            TOTAL IN =       48042.5234              TOTAL IN =       1.8227E-03

          OUT:                                     OUT:
          ----                                     ----
             STORAGE =       13925.5186               STORAGE =       5.7742E-08
       CONSTANT HEAD =       34118.3125         CONSTANT HEAD =       1.8227E-03
            RECHARGE =           0.0000              RECHARGE =           0.0000

           TOTAL OUT =       48043.8320             TOTAL OUT =       1.8228E-03

            IN - OUT =          -1.3086              IN - OUT =      -8.4518E-08

 PERCENT DISCREPANCY =          -0.00     PERCENT DISCREPANCY =          -0.00






         TIME SUMMARY AT END OF TIME STEP    1 IN STRESS PERIOD  116
                    SECONDS     MINUTES      HOURS       DAYS        YEARS
                    -----------------------------------------------------------
   TIME STEP LENGTH  86400.      1440.0      24.000      1.0000     2.73785E-03
 STRESS PERIOD TIME  86400.      1440.0      24.000      1.0000     2.73785E-03
         TOTAL TIME 1.39968E+07 2.33280E+05  3888.0      162.00     0.44353    
1
1
                            STRESS PERIOD NO.  117, LENGTH =   86400.00    
                            -----------------------------------------------

                              NUMBER OF TIME STEPS =     1

                               MULTIPLIER FOR DELT =     1.000

                            INITIAL TIME STEP SIZE =   86400.00    

 REUSING RECH FROM LAST STRESS PERIOD

 CHD NO.   LAYER   ROW   COL    START HEAD        END HEAD         IFACE           
 ----------------------------------------------------------------------------------
      1      4      1      1       110.0           110.0           0.000    
      2      5      1      1       110.0           110.0           0.000    
      3      4      1      2       110.0           110.0           0.000    
      4      5      1      2       110.0           110.0           0.000    
      5      4      1      3       110.0           110.0           0.000    
      6      5      1      3       110.0           110.0           0.000    
      7      4      1      4       110.0           110.0           0.000    
      8      5      1      4       110.0           110.0           0.000    
      9      4      1      5       110.0           110.0           0.000    
     10      5      1      5       110.0           110.0           0.000    
     11      4      1      6       110.0           110.0           0.000    
     12      5      1      6       110.0           110.0           0.000    
     13      4      1      7       110.0           110.0           0.000    
     14      5      1      7       110.0           110.0           0.000    
     15      4      1      8       110.0           110.0           0.000    
     16      5      1      8       110.0           110.0           0.000    
     17      4      1      9       110.0           110.0           0.000    
     18      5      1      9       110.0           110.0           0.000    
     19      4      1     10       110.0           110.0           0.000    
     20      5      1     10       110.0           110.0           0.000    
     21      4      1     11       110.0           110.0           0.000    
     22      5      1     11       110.0           110.0           0.000    
     23      4      1     12       110.0           110.0           0.000    
     24      5      1     12       110.0           110.0           0.000    
     25      4      1     13       110.0           110.0           0.000    
     26      5      1     13       110.0           110.0           0.000    
     27      4      1     14       110.0           110.0           0.000    
     28      5      1     14       110.0           110.0           0.000    
     29      4      1     15       110.0           110.0           0.000    
     30      5      1     15       110.0           110.0           0.000    
     31      4      1     16       110.0           110.0           0.000    
     32      5      1     16       110.0           110.0           0.000    
     33      4      1     17       110.0           110.0           0.000    
     34      5      1     17       110.0           110.0           0.000    
     35      4     17     17       109.8           109.9           0.000    
     36      5     17     17       109.8           109.9           0.000    
     37      4     18     17       109.8           109.9           0.000    
     38      5     18     17       109.8           109.9           0.000    
     39      4     18     16       109.8           109.9           0.000    
     40      5     18     16       109.8           109.9           0.000    
     41      4     19     16       109.8           109.9           0.000    
     42      5     19     16       109.8           109.9           0.000    
     43      4     19     15       109.8           109.9           0.000    
     44      5     19     15       109.8           109.9           0.000    
     45      4     20     15       109.8           109.9           0.000    
     46      5     20     15       109.8           109.9           0.000    
     47      4     20     14       109.8           109.9           0.000    
     48      5     20     14       109.8           109.9           0.000    
     49      4     20     13       109.8           109.9           0.000    
     50      5     20     13       109.8           109.9           0.000    
     51      4     20     12       109.8           109.9           0.000    
     52      5     20     12       109.8           109.9           0.000    
     53      4     20     11       109.8           109.9           0.000    
     54      5     20     11       109.8           109.9           0.000    
     55      4     21     11       109.8           109.9           0.000    
     56      5     21     11       109.8           109.9           0.000    
     57      4     21     10       109.8           109.9           0.000    
     58      5     21     10       109.8           109.9           0.000    
     59      4     21      9       109.8           109.9           0.000    
     60      5     21      9       109.8           109.9           0.000    
     61      4     21      8       109.8           109.9           0.000    
     62      5     21      8       109.8           109.9           0.000    
     63      4     21      7       109.8           109.9           0.000    
     64      5     21      7       109.8           109.9           0.000    
     65      4     21      6       109.8           109.9           0.000    
     66      5     21      6       109.8           109.9           0.000    
     67      4     21      5       109.8           109.9           0.000    
     68      5     21      5       109.8           109.9           0.000    
     69      4     22      5       109.8           109.9           0.000    
     70      5     22      5       109.8           109.9           0.000    
     71      4     22      4       109.8           109.9           0.000    
     72      5     22      4       109.8           109.9           0.000    
     73      4     22      3       109.8           109.9           0.000    
     74      5     22      3       109.8           109.9           0.000    
     75      4     22      2       109.8           109.9           0.000    
     76      5     22      2       109.8           109.9           0.000    
     77      4     22      1       109.8           109.9           0.000    
     78      5     22      1       109.8           109.9           0.000    


     78 TIME-VARIANT SPECIFIED-HEAD CELLS

 SOLVING FOR HEAD 


     3 CALLS TO PCG ROUTINE FOR TIME STEP   1 IN STRESS PERIOD  117
    52 TOTAL ITERATIONS

 MAXIMUM HEAD CHANGE FOR EACH ITERATION (1 INDICATES THE FIRST INNER ITERATION):

    HEAD CHANGE    HEAD CHANGE    HEAD CHANGE    HEAD CHANGE    HEAD CHANGE 
   LAYER,ROW,COL  LAYER,ROW,COL  LAYER,ROW,COL  LAYER,ROW,COL  LAYER,ROW,COL
 ---------------------------------------------------------------------------
  1  0.1587      0 -0.1052      0  0.9171E-01  0  0.7184E-01  0  0.9897E-01
   (  5, 21,  2)  (  5, 17,  1)  (  5, 16,  2)  (  5, 17,  1)  (  5, 19,  1)
  0  0.5841E-01  0 -0.5087E-01  0 -0.3777E-01  0  0.3353E-01  0 -0.1946E-01
   (  5, 20,  1)  (  5, 18,  1)  (  5, 19,  1)  (  5, 18,  1)  (  5, 18,  4)
  0  0.1456E-01  0  0.1006E-01  0 -0.1051E-01  0  0.7199E-02  0 -0.4222E-02
   (  5, 17,  3)  (  5, 14,  1)  (  5, 16,  2)  (  5, 12,  5)  (  5, 19,  1)
  0  0.3678E-02  0 -0.3814E-02  0 -0.2172E-02  0 -0.2805E-02  0 -0.9938E-03
   (  5, 18,  1)  (  5, 18,  2)  (  5, 16,  1)  (  5, 19,  3)  (  5, 17,  2)
  0  0.1000E-02  0 -0.8258E-03  0 -0.5942E-03  0  0.5845E-03  0  0.3132E-03
   (  5, 16,  1)  (  5, 17,  2)  (  5, 19,  1)  (  5, 19,  2)  (  5, 18,  5)
  0  0.2308E-03  0  0.1714E-03  0  0.9051E-04  0 -0.1150E-03  0  0.7093E-04
   (  5, 20,  3)  (  5, 14,  2)  (  5, 19,  1)  (  5, 18,  1)  (  5, 15,  2)
  1 -0.7094E-04  0  0.1319E-03  0 -0.9268E-04  0  0.9798E-04  0 -0.8667E-04
   (  5, 16,  1)  (  5, 18,  3)  (  5, 18,  2)  (  5, 19,  2)  (  5, 20,  1)
  0 -0.4898E-04  0  0.5053E-04  0 -0.3500E-04  0  0.2314E-04  0 -0.1373E-04
   (  5, 12,  2)  (  5, 19,  1)  (  5, 20,  1)  (  5, 16,  4)  (  5, 17,  5)
  0  0.1062E-04  0 -0.7708E-05  0  0.7205E-05  0  0.6033E-05  0 -0.4444E-05
   (  5, 15,  4)  (  5, 15,  1)  (  5, 16,  2)  (  5, 19,  2)  (  5, 19,  4)
  0 -0.3658E-05  0  0.1965E-05  0 -0.2365E-05  0 -0.1359E-05  0  0.1135E-05
   (  5, 17,  1)  (  5, 19,  1)  (  5, 20,  1)  (  5, 20,  4)  (  5, 19,  3)
  0  0.9207E-06  1 -0.6657E-06
   (  5, 17,  1)  (  5, 15,  1)

 MAXIMUM RESIDUAL FOR EACH ITERATION (1 INDICATES THE FIRST INNER ITERATION):

    RESIDUAL       RESIDUAL       RESIDUAL       RESIDUAL       RESIDUAL    
   LAYER,ROW,COL  LAYER,ROW,COL  LAYER,ROW,COL  LAYER,ROW,COL  LAYER,ROW,COL
 ---------------------------------------------------------------------------
  1 -0.4665E-02  0 -0.4209E-02  0 -0.3790E-02  0 -0.3224E-02  0 -0.2572E-02
   (  3, 17, 17)  (  3, 17, 17)  (  3, 17, 17)  (  3, 17, 17)  (  3, 17, 17)
  0 -0.1931E-02  0 -0.1296E-02  0 -0.7866E-03  0 -0.4684E-03  0 -0.2978E-03
   (  3, 17, 17)  (  3, 17, 17)  (  3, 17, 17)  (  3, 20, 11)  (  3, 20, 11)
  0 -0.1985E-03  0 -0.1738E-03  0 -0.1561E-03  0 -0.1254E-03  0 -0.9854E-04
   (  4, 16, 17)  (  4, 16, 17)  (  4, 16, 17)  (  4, 16, 17)  (  4, 16, 17)
  0 -0.8133E-04  0 -0.6780E-04  0 -0.4992E-04  0 -0.3565E-04  0 -0.2452E-04
   (  4, 16, 17)  (  4, 16, 17)  (  4, 16, 17)  (  4, 16, 17)  (  4, 16, 17)
  0 -0.1980E-04  0 -0.1656E-04  0 -0.1340E-04  0 -0.1001E-04  0 -0.6210E-05
   (  4, 16, 17)  (  4, 16, 17)  (  4, 16, 17)  (  4, 16, 17)  (  4, 16, 17)
  0  0.3811E-05  0  0.2127E-05  0  0.1852E-05  0  0.9397E-06  0 -0.7307E-06
   (  3, 21,  6)  (  3, 21,  6)  (  3, 21,  6)  (  3, 21,  6)  (  3, 17, 17)
  1 -0.1089E-05  0 -0.8445E-06  0 -0.7089E-06  0 -0.6084E-06  0 -0.4535E-06
   (  3, 17, 17)  (  3, 17, 17)  (  3, 17, 17)  (  3, 17, 17)  (  3, 17, 17)
  0 -0.3547E-06  0  0.3080E-06  0  0.2272E-06  0 -0.1694E-06  0 -0.1291E-06
   (  3, 17, 17)  (  4, 18, 14)  (  4, 18, 14)  (  3, 17, 17)  (  3, 17, 17)
  0 -0.1089E-06  0 -0.9937E-07  0 -0.7759E-07  0 -0.6073E-07  0 -0.4914E-07
   (  3, 17, 17)  (  3, 17, 17)  (  3, 17, 17)  (  3, 17, 17)  (  3, 17, 17)
  0 -0.3984E-07  0 -0.3544E-07  0 -0.2594E-07  0 -0.1836E-07  0 -0.1320E-07
   (  3, 17, 17)  (  3, 17, 17)  (  3, 17, 17)  (  3, 17, 17)  (  3, 17, 17)
  0 -0.1134E-07  1 -0.1130E-07
   (  3, 17, 17)  (  3, 17, 17)



 OUTPUT CONTROL FOR STRESS PERIOD  117   TIME STEP    1
    SAVE HEAD FOR ALL LAYERS
    SAVE DRAWDOWN FOR ALL LAYERS
    SAVE BUDGET
    PRINT BUDGET
 UBDSV1 SAVING "         STORAGE" ON UNIT   9 AT TIME STEP  1, STRESS PERIOD 117
 UBDSV2 SAVING "   CONSTANT HEAD" ON UNIT   9 AT TIME STEP  1, STRESS PERIOD 117
 UBDSV1 SAVING "FLOW RIGHT FACE " ON UNIT   9 AT TIME STEP  1, STRESS PERIOD 117
 UBDSV1 SAVING "FLOW FRONT FACE " ON UNIT   9 AT TIME STEP  1, STRESS PERIOD 117
 UBDSV1 SAVING "FLOW LOWER FACE " ON UNIT   9 AT TIME STEP  1, STRESS PERIOD 117
 UBDSV3 SAVING "        RECHARGE" ON UNIT   9 AT TIME STEP  1, STRESS PERIOD 117

 HEAD WILL BE SAVED ON UNIT   37 AT END OF TIME STEP    1, STRESS PERIOD  117

 DRAWDOWN WILL BE SAVED ON UNIT   38 AT END OF TIME STEP    1, STRESS PERIOD  117
1
  VOLUMETRIC BUDGET FOR ENTIRE MODEL AT END OF TIME STEP    1, STRESS PERIOD 117
  ------------------------------------------------------------------------------

     CUMULATIVE VOLUMES      L**3       RATES FOR THIS TIME STEP      L**3/T
     ------------------                 ------------------------

           IN:                                      IN:
           ---                                      ---
             STORAGE =       16992.5508               STORAGE =           0.0000
       CONSTANT HEAD =       29842.0898         CONSTANT HEAD =       1.8656E-03
            RECHARGE =        1377.5226              RECHARGE =       9.7813E-05

            TOTAL IN =       48212.1641              TOTAL IN =       1.9634E-03

          OUT:                                     OUT:
          ----                                     ----
             STORAGE =       14062.3965               STORAGE =       1.5842E-03
       CONSTANT HEAD =       34151.0820         CONSTANT HEAD =       3.7928E-04
            RECHARGE =           0.0000              RECHARGE =           0.0000

           TOTAL OUT =       48213.4766             TOTAL OUT =       1.9635E-03

            IN - OUT =          -1.3125              IN - OUT =      -9.7789E-08

 PERCENT DISCREPANCY =          -0.00     PERCENT DISCREPANCY =          -0.00






         TIME SUMMARY AT END OF TIME STEP    1 IN STRESS PERIOD  117
                    SECONDS     MINUTES      HOURS       DAYS        YEARS
                    -----------------------------------------------------------
   TIME STEP LENGTH  86400.      1440.0      24.000      1.0000     2.73785E-03
 STRESS PERIOD TIME  86400.      1440.0      24.000      1.0000     2.73785E-03
         TOTAL TIME 1.40832E+07 2.34720E+05  3912.0      163.00     0.44627    
1
1
                            STRESS PERIOD NO.  118, LENGTH =   86400.00    
                            -----------------------------------------------

                              NUMBER OF TIME STEPS =     1

                               MULTIPLIER FOR DELT =     1.000

                            INITIAL TIME STEP SIZE =   86400.00    

 REUSING RECH FROM LAST STRESS PERIOD

 CHD NO.   LAYER   ROW   COL    START HEAD        END HEAD         IFACE           
 ----------------------------------------------------------------------------------
      1      4      1      1       110.0           110.0           0.000    
      2      5      1      1       110.0           110.0           0.000    
      3      4      1      2       110.0           110.0           0.000    
      4      5      1      2       110.0           110.0           0.000    
      5      4      1      3       110.0           110.0           0.000    
      6      5      1      3       110.0           110.0           0.000    
      7      4      1      4       110.0           110.0           0.000    
      8      5      1      4       110.0           110.0           0.000    
      9      4      1      5       110.0           110.0           0.000    
     10      5      1      5       110.0           110.0           0.000    
     11      4      1      6       110.0           110.0           0.000    
     12      5      1      6       110.0           110.0           0.000    
     13      4      1      7       110.0           110.0           0.000    
     14      5      1      7       110.0           110.0           0.000    
     15      4      1      8       110.0           110.0           0.000    
     16      5      1      8       110.0           110.0           0.000    
     17      4      1      9       110.0           110.0           0.000    
     18      5      1      9       110.0           110.0           0.000    
     19      4      1     10       110.0           110.0           0.000    
     20      5      1     10       110.0           110.0           0.000    
     21      4      1     11       110.0           110.0           0.000    
     22      5      1     11       110.0           110.0           0.000    
     23      4      1     12       110.0           110.0           0.000    
     24      5      1     12       110.0           110.0           0.000    
     25      4      1     13       110.0           110.0           0.000    
     26      5      1     13       110.0           110.0           0.000    
     27      4      1     14       110.0           110.0           0.000    
     28      5      1     14       110.0           110.0           0.000    
     29      4      1     15       110.0           110.0           0.000    
     30      5      1     15       110.0           110.0           0.000    
     31      4      1     16       110.0           110.0           0.000    
     32      5      1     16       110.0           110.0           0.000    
     33      4      1     17       110.0           110.0           0.000    
     34      5      1     17       110.0           110.0           0.000    
     35      4     17     17       109.9           109.9           0.000    
     36      5     17     17       109.9           109.9           0.000    
     37      4     18     17       109.9           109.9           0.000    
     38      5     18     17       109.9           109.9           0.000    
     39      4     18     16       109.9           109.9           0.000    
     40      5     18     16       109.9           109.9           0.000    
     41      4     19     16       109.9           109.9           0.000    
     42      5     19     16       109.9           109.9           0.000    
     43      4     19     15       109.9           109.9           0.000    
     44      5     19     15       109.9           109.9           0.000    
     45      4     20     15       109.9           109.9           0.000    
     46      5     20     15       109.9           109.9           0.000    
     47      4     20     14       109.9           109.9           0.000    
     48      5     20     14       109.9           109.9           0.000    
     49      4     20     13       109.9           109.9           0.000    
     50      5     20     13       109.9           109.9           0.000    
     51      4     20     12       109.9           109.9           0.000    
     52      5     20     12       109.9           109.9           0.000    
     53      4     20     11       109.9           109.9           0.000    
     54      5     20     11       109.9           109.9           0.000    
     55      4     21     11       109.9           109.9           0.000    
     56      5     21     11       109.9           109.9           0.000    
     57      4     21     10       109.9           109.9           0.000    
     58      5     21     10       109.9           109.9           0.000    
     59      4     21      9       109.9           109.9           0.000    
     60      5     21      9       109.9           109.9           0.000    
     61      4     21      8       109.9           109.9           0.000    
     62      5     21      8       109.9           109.9           0.000    
     63      4     21      7       109.9           109.9           0.000    
     64      5     21      7       109.9           109.9           0.000    
     65      4     21      6       109.9           109.9           0.000    
     66      5     21      6       109.9           109.9           0.000    
     67      4     21      5       109.9           109.9           0.000    
     68      5     21      5       109.9           109.9           0.000    
     69      4     22      5       109.9           109.9           0.000    
     70      5     22      5       109.9           109.9           0.000    
     71      4     22      4       109.9           109.9           0.000    
     72      5     22      4       109.9           109.9           0.000    
     73      4     22      3       109.9           109.9           0.000    
     74      5     22      3       109.9           109.9           0.000    
     75      4     22      2       109.9           109.9           0.000    
     76      5     22      2       109.9           109.9           0.000    
     77      4     22      1       109.9           109.9           0.000    
     78      5     22      1       109.9           109.9           0.000    


     78 TIME-VARIANT SPECIFIED-HEAD CELLS

 SOLVING FOR HEAD 


     3 CALLS TO PCG ROUTINE FOR TIME STEP   1 IN STRESS PERIOD  118
    46 TOTAL ITERATIONS

 MAXIMUM HEAD CHANGE FOR EACH ITERATION (1 INDICATES THE FIRST INNER ITERATION):

    HEAD CHANGE    HEAD CHANGE    HEAD CHANGE    HEAD CHANGE    HEAD CHANGE 
   LAYER,ROW,COL  LAYER,ROW,COL  LAYER,ROW,COL  LAYER,ROW,COL  LAYER,ROW,COL
 ---------------------------------------------------------------------------
  1  0.2302E-01  0 -0.1396E-01  0 -0.1304E-01  0  0.9867E-02  0  0.1049E-01
   (  5, 21,  2)  (  5, 17,  1)  (  5, 20,  1)  (  5, 18,  1)  (  5, 19,  1)
  0  0.8621E-02  0 -0.5798E-02  0  0.5414E-02  0  0.4120E-02  0  0.2577E-02
   (  5, 17,  4)  (  5, 15,  3)  (  5, 17,  1)  (  5, 16,  3)  (  5, 19,  1)
  0  0.1894E-02  0  0.1041E-02  0 -0.1302E-02  0 -0.5580E-03  0 -0.4766E-03
   (  5, 14,  5)  (  5, 17,  2)  (  5, 16,  3)  (  5, 15,  5)  (  5, 12,  6)
  0 -0.4313E-03  0  0.2874E-03  0 -0.2161E-03  0  0.1830E-03  0 -0.2164E-03
   (  5, 18,  3)  (  5, 17,  2)  (  5, 19,  2)  (  5, 16,  1)  (  5, 17,  2)
  0  0.9439E-04  0 -0.1053E-03  0  0.7794E-04  0  0.5442E-04  0  0.4180E-04
   (  5, 16,  1)  (  5, 19,  1)  (  5, 20,  1)  (  5, 19,  3)  (  5, 18,  5)
  0 -0.2515E-04  0  0.1720E-04  0  0.1846E-04  0 -0.1005E-04  0  0.8669E-05
   (  5, 17,  5)  (  5, 19,  5)  (  5, 16,  1)  (  5, 15,  1)  (  5, 15,  3)
  1  0.1144E-04  0  0.2342E-04  0 -0.1613E-04  0  0.1342E-04  0  0.1148E-04
   (  5, 18,  1)  (  5, 14,  1)  (  5, 16,  1)  (  5, 16,  3)  (  5, 11,  1)
  0 -0.9328E-05  0  0.1113E-04  0 -0.6825E-05  0  0.4922E-05  0  0.2606E-05
   (  5, 13,  3)  (  5, 19,  1)  (  5, 20,  1)  (  5, 20,  1)  (  5, 18,  3)
  0 -0.2123E-05  0 -0.1602E-05  0  0.1262E-05  0 -0.1375E-05  0 -0.6833E-06
   (  5, 12,  4)  (  5, 18,  2)  (  5, 16,  2)  (  5, 16,  1)  (  5, 19,  4)
  1  0.5587E-06
   (  5, 20,  1)

 MAXIMUM RESIDUAL FOR EACH ITERATION (1 INDICATES THE FIRST INNER ITERATION):

    RESIDUAL       RESIDUAL       RESIDUAL       RESIDUAL       RESIDUAL    
   LAYER,ROW,COL  LAYER,ROW,COL  LAYER,ROW,COL  LAYER,ROW,COL  LAYER,ROW,COL
 ---------------------------------------------------------------------------
  1 -0.2873E-03  0 -0.2663E-03  0 -0.2450E-03  0 -0.2172E-03  0 -0.1760E-03
   (  3, 17, 17)  (  3, 17, 17)  (  3, 17, 17)  (  3, 17, 17)  (  3, 17, 17)
  0 -0.1334E-03  0 -0.8478E-04  0 -0.4800E-04  0 -0.2761E-04  0  0.1859E-04
   (  3, 17, 17)  (  3, 17, 17)  (  3, 17, 17)  (  3, 17, 17)  (  5, 16, 17)
  0  0.1437E-04  0  0.1323E-04  0  0.1065E-04  0  0.8387E-05  0  0.6763E-05
   (  5, 16, 17)  (  5, 16, 17)  (  4, 21,  2)  (  4, 21,  2)  (  4, 21,  2)
  0  0.5380E-05  0  0.3723E-05  0  0.3398E-05  0  0.2405E-05  0  0.1722E-05
   (  4, 21,  2)  (  4, 21,  2)  (  4, 21,  2)  (  4, 21,  2)  (  3, 21,  6)
  0  0.1634E-05  0  0.1370E-05  0  0.1146E-05  0  0.8279E-06  0  0.5472E-06
   (  3, 21,  6)  (  3, 21,  6)  (  3, 21,  6)  (  3, 21,  6)  (  3, 21,  6)
  0  0.3512E-06  0  0.2031E-06  0 -0.1146E-06  0  0.1079E-06  0  0.8669E-07
   (  3, 21,  6)  (  3, 21,  6)  (  5, 15, 17)  (  4, 20,  3)  (  4, 20,  3)
  1  0.1178E-06  0  0.9089E-07  0  0.8234E-07  0  0.6315E-07  0  0.4490E-07
   (  2,  2,  7)  (  2,  2,  7)  (  2,  2,  7)  (  2,  2,  7)  (  2,  2,  7)
  0  0.3174E-07  0  0.3111E-07  0  0.2695E-07  0  0.2077E-07  0  0.1462E-07
   (  2,  2,  7)  (  5, 16, 17)  (  4, 18, 14)  (  4, 18, 14)  (  4, 18, 14)
  0  0.9261E-08  0  0.7521E-08  0  0.6525E-08  0  0.5220E-08  0  0.5392E-08
   (  4, 17, 15)  (  4, 21,  2)  (  4, 21,  2)  (  4, 21,  2)  (  4, 21,  2)
  1  0.4460E-08
   (  4, 21,  2)



 OUTPUT CONTROL FOR STRESS PERIOD  118   TIME STEP    1
    SAVE HEAD FOR ALL LAYERS
    SAVE DRAWDOWN FOR ALL LAYERS
    SAVE BUDGET
    PRINT BUDGET
 UBDSV1 SAVING "         STORAGE" ON UNIT   9 AT TIME STEP  1, STRESS PERIOD 118
 UBDSV2 SAVING "   CONSTANT HEAD" ON UNIT   9 AT TIME STEP  1, STRESS PERIOD 118
 UBDSV1 SAVING "FLOW RIGHT FACE " ON UNIT   9 AT TIME STEP  1, STRESS PERIOD 118
 UBDSV1 SAVING "FLOW FRONT FACE " ON UNIT   9 AT TIME STEP  1, STRESS PERIOD 118
 UBDSV1 SAVING "FLOW LOWER FACE " ON UNIT   9 AT TIME STEP  1, STRESS PERIOD 118
 UBDSV3 SAVING "        RECHARGE" ON UNIT   9 AT TIME STEP  1, STRESS PERIOD 118

 HEAD WILL BE SAVED ON UNIT   37 AT END OF TIME STEP    1, STRESS PERIOD  118

 DRAWDOWN WILL BE SAVED ON UNIT   38 AT END OF TIME STEP    1, STRESS PERIOD  118
1
  VOLUMETRIC BUDGET FOR ENTIRE MODEL AT END OF TIME STEP    1, STRESS PERIOD 118
  ------------------------------------------------------------------------------

     CUMULATIVE VOLUMES      L**3       RATES FOR THIS TIME STEP      L**3/T
     ------------------                 ------------------------

           IN:                                      IN:
           ---                                      ---
             STORAGE =       16992.5508               STORAGE =           0.0000
       CONSTANT HEAD =       29975.1660         CONSTANT HEAD =       1.5402E-03
            RECHARGE =        1385.9736              RECHARGE =       9.7813E-05

            TOTAL IN =       48353.6914              TOTAL IN =       1.6380E-03

          OUT:                                     OUT:
          ----                                     ----
             STORAGE =       14119.0898               STORAGE =       6.5617E-04
       CONSTANT HEAD =       34235.9258         CONSTANT HEAD =       9.8197E-04
            RECHARGE =           0.0000              RECHARGE =           0.0000

           TOTAL OUT =       48355.0156             TOTAL OUT =       1.6381E-03

            IN - OUT =          -1.3242              IN - OUT =      -1.0571E-07

 PERCENT DISCREPANCY =          -0.00     PERCENT DISCREPANCY =          -0.01






         TIME SUMMARY AT END OF TIME STEP    1 IN STRESS PERIOD  118
                    SECONDS     MINUTES      HOURS       DAYS        YEARS
                    -----------------------------------------------------------
   TIME STEP LENGTH  86400.      1440.0      24.000      1.0000     2.73785E-03
 STRESS PERIOD TIME  86400.      1440.0      24.000      1.0000     2.73785E-03
         TOTAL TIME 1.41696E+07 2.36160E+05  3936.0      164.00     0.44901    
1
1
                            STRESS PERIOD NO.  119, LENGTH =   86400.00    
                            -----------------------------------------------

                              NUMBER OF TIME STEPS =     1

                               MULTIPLIER FOR DELT =     1.000

                            INITIAL TIME STEP SIZE =   86400.00    

 REUSING RECH FROM LAST STRESS PERIOD

 CHD NO.   LAYER   ROW   COL    START HEAD        END HEAD         IFACE           
 ----------------------------------------------------------------------------------
      1      4      1      1       110.0           110.0           0.000    
      2      5      1      1       110.0           110.0           0.000    
      3      4      1      2       110.0           110.0           0.000    
      4      5      1      2       110.0           110.0           0.000    
      5      4      1      3       110.0           110.0           0.000    
      6      5      1      3       110.0           110.0           0.000    
      7      4      1      4       110.0           110.0           0.000    
      8      5      1      4       110.0           110.0           0.000    
      9      4      1      5       110.0           110.0           0.000    
     10      5      1      5       110.0           110.0           0.000    
     11      4      1      6       110.0           110.0           0.000    
     12      5      1      6       110.0           110.0           0.000    
     13      4      1      7       110.0           110.0           0.000    
     14      5      1      7       110.0           110.0           0.000    
     15      4      1      8       110.0           110.0           0.000    
     16      5      1      8       110.0           110.0           0.000    
     17      4      1      9       110.0           110.0           0.000    
     18      5      1      9       110.0           110.0           0.000    
     19      4      1     10       110.0           110.0           0.000    
     20      5      1     10       110.0           110.0           0.000    
     21      4      1     11       110.0           110.0           0.000    
     22      5      1     11       110.0           110.0           0.000    
     23      4      1     12       110.0           110.0           0.000    
     24      5      1     12       110.0           110.0           0.000    
     25      4      1     13       110.0           110.0           0.000    
     26      5      1     13       110.0           110.0           0.000    
     27      4      1     14       110.0           110.0           0.000    
     28      5      1     14       110.0           110.0           0.000    
     29      4      1     15       110.0           110.0           0.000    
     30      5      1     15       110.0           110.0           0.000    
     31      4      1     16       110.0           110.0           0.000    
     32      5      1     16       110.0           110.0           0.000    
     33      4      1     17       110.0           110.0           0.000    
     34      5      1     17       110.0           110.0           0.000    
     35      4     17     17       109.9           109.9           0.000    
     36      5     17     17       109.9           109.9           0.000    
     37      4     18     17       109.9           109.9           0.000    
     38      5     18     17       109.9           109.9           0.000    
     39      4     18     16       109.9           109.9           0.000    
     40      5     18     16       109.9           109.9           0.000    
     41      4     19     16       109.9           109.9           0.000    
     42      5     19     16       109.9           109.9           0.000    
     43      4     19     15       109.9           109.9           0.000    
     44      5     19     15       109.9           109.9           0.000    
     45      4     20     15       109.9           109.9           0.000    
     46      5     20     15       109.9           109.9           0.000    
     47      4     20     14       109.9           109.9           0.000    
     48      5     20     14       109.9           109.9           0.000    
     49      4     20     13       109.9           109.9           0.000    
     50      5     20     13       109.9           109.9           0.000    
     51      4     20     12       109.9           109.9           0.000    
     52      5     20     12       109.9           109.9           0.000    
     53      4     20     11       109.9           109.9           0.000    
     54      5     20     11       109.9           109.9           0.000    
     55      4     21     11       109.9           109.9           0.000    
     56      5     21     11       109.9           109.9           0.000    
     57      4     21     10       109.9           109.9           0.000    
     58      5     21     10       109.9           109.9           0.000    
     59      4     21      9       109.9           109.9           0.000    
     60      5     21      9       109.9           109.9           0.000    
     61      4     21      8       109.9           109.9           0.000    
     62      5     21      8       109.9           109.9           0.000    
     63      4     21      7       109.9           109.9           0.000    
     64      5     21      7       109.9           109.9           0.000    
     65      4     21      6       109.9           109.9           0.000    
     66      5     21      6       109.9           109.9           0.000    
     67      4     21      5       109.9           109.9           0.000    
     68      5     21      5       109.9           109.9           0.000    
     69      4     22      5       109.9           109.9           0.000    
     70      5     22      5       109.9           109.9           0.000    
     71      4     22      4       109.9           109.9           0.000    
     72      5     22      4       109.9           109.9           0.000    
     73      4     22      3       109.9           109.9           0.000    
     74      5     22      3       109.9           109.9           0.000    
     75      4     22      2       109.9           109.9           0.000    
     76      5     22      2       109.9           109.9           0.000    
     77      4     22      1       109.9           109.9           0.000    
     78      5     22      1       109.9           109.9           0.000    


     78 TIME-VARIANT SPECIFIED-HEAD CELLS

 SOLVING FOR HEAD 


     3 CALLS TO PCG ROUTINE FOR TIME STEP   1 IN STRESS PERIOD  119
    47 TOTAL ITERATIONS

 MAXIMUM HEAD CHANGE FOR EACH ITERATION (1 INDICATES THE FIRST INNER ITERATION):

    HEAD CHANGE    HEAD CHANGE    HEAD CHANGE    HEAD CHANGE    HEAD CHANGE 
   LAYER,ROW,COL  LAYER,ROW,COL  LAYER,ROW,COL  LAYER,ROW,COL  LAYER,ROW,COL
 ---------------------------------------------------------------------------
  1 -0.6090E-01  0  0.4108E-01  0 -0.3500E-01  0 -0.2723E-01  0 -0.3908E-01
   (  5, 21,  2)  (  5, 17,  1)  (  5, 16,  2)  (  5, 17,  1)  (  5, 19,  1)
  0 -0.2215E-01  0  0.1974E-01  0  0.1451E-01  0 -0.1250E-01  0  0.7298E-02
   (  5, 20,  1)  (  5, 18,  1)  (  5, 19,  1)  (  5, 18,  1)  (  5, 18,  4)
  0 -0.5894E-02  0  0.4959E-02  0 -0.2482E-02  0 -0.2504E-02  0 -0.1966E-02
   (  5, 17,  3)  (  5, 16,  3)  (  5, 15,  1)  (  5, 12,  5)  (  5, 19,  3)
  0  0.1539E-02  0 -0.1248E-02  0  0.8767E-03  0  0.1052E-02  0 -0.3720E-03
   (  5, 18,  2)  (  5, 18,  1)  (  5, 16,  1)  (  5, 19,  3)  (  5, 18,  2)
  0 -0.3679E-03  0 -0.2454E-03  0  0.2077E-03  0 -0.2267E-03  0 -0.1008E-03
   (  5, 17,  5)  (  5, 19,  2)  (  5, 16,  1)  (  5, 16,  2)  (  5, 18,  5)
  0 -0.9142E-04  0 -0.7414E-04  0 -0.5689E-04  0 -0.4226E-04  0  0.2758E-04
   (  5, 20,  3)  (  5, 14,  2)  (  5, 18,  1)  (  5,  6,  1)  (  5,  6,  1)
  1 -0.2282E-04  0  0.1822E-04  0  0.1935E-04  0 -0.1871E-04  0 -0.1355E-04
   (  5,  6,  1)  (  5, 16,  1)  (  5, 12,  4)  (  5, 13,  3)  (  5, 17,  1)
  0  0.1727E-04  0 -0.1477E-04  0  0.8595E-05  0 -0.6337E-05  0  0.4729E-05
   (  5, 18,  1)  (  5, 19,  1)  (  5, 15,  4)  (  5, 16,  4)  (  5, 17,  5)
  0 -0.3197E-05  0 -0.2771E-05  0  0.1570E-05  0 -0.2215E-05  0 -0.1062E-05
   (  5, 15,  4)  (  5, 14,  1)  (  5, 16,  1)  (  5, 19,  2)  (  5, 16,  1)
  0 -0.9563E-06  1  0.4447E-06
   (  5, 20,  1)  (  5, 20,  1)

 MAXIMUM RESIDUAL FOR EACH ITERATION (1 INDICATES THE FIRST INNER ITERATION):

    RESIDUAL       RESIDUAL       RESIDUAL       RESIDUAL       RESIDUAL    
   LAYER,ROW,COL  LAYER,ROW,COL  LAYER,ROW,COL  LAYER,ROW,COL  LAYER,ROW,COL
 ---------------------------------------------------------------------------
  1  0.1750E-02  0  0.1573E-02  0  0.1412E-02  0  0.1192E-02  0  0.9357E-03
   (  3, 17, 17)  (  3, 17, 17)  (  3, 17, 17)  (  3, 17, 17)  (  3, 17, 17)
  0  0.6880E-03  0  0.4505E-03  0  0.2704E-03  0  0.1629E-03  0  0.1034E-03
   (  3, 17, 17)  (  3, 17, 17)  (  3, 17, 17)  (  3, 20, 11)  (  3, 20, 11)
  0  0.7678E-04  0  0.6254E-04  0  0.5900E-04  0  0.4829E-04  0  0.3739E-04
   (  4, 16, 17)  (  4, 16, 17)  (  4, 16, 17)  (  4, 16, 17)  (  4, 16, 17)
  0  0.3206E-04  0  0.2513E-04  0  0.1809E-04  0  0.1263E-04  0  0.8555E-05
   (  4, 16, 17)  (  4, 16, 17)  (  4, 16, 17)  (  4, 16, 17)  (  4, 16, 17)
  0  0.6072E-05  0  0.5159E-05  0  0.4319E-05  0 -0.3598E-05  0 -0.2333E-05
   (  4, 16, 17)  (  4, 16, 17)  (  4, 16, 17)  (  3, 21,  6)  (  3, 21,  6)
  0 -0.1448E-05  0 -0.9801E-06  0 -0.7220E-06  0 -0.3497E-06  0  0.2097E-06
   (  3, 21,  6)  (  3, 21,  6)  (  3, 21,  6)  (  3, 21,  6)  (  5, 15, 17)
  1 -0.2275E-06  0 -0.2183E-06  0 -0.1786E-06  0  0.1377E-06  0  0.1303E-06
   (  3, 21,  5)  (  3, 21,  5)  (  3, 21,  5)  (  4, 16, 17)  (  4, 16, 17)
  0  0.1082E-06  0  0.9520E-07  0  0.6667E-07  0  0.4985E-07  0  0.3557E-07
   (  4, 16, 17)  (  4, 16, 17)  (  4, 16, 17)  (  4, 16, 17)  (  4, 16, 17)
  0  0.2688E-07  0  0.2097E-07  0  0.1961E-07  0  0.1562E-07  0  0.1341E-07
   (  4, 16, 17)  (  4, 16, 17)  (  4, 16, 17)  (  4, 16, 17)  (  4, 16, 17)
  0  0.1131E-07  1  0.1102E-07
   (  4, 16, 17)  (  4, 16, 17)



 OUTPUT CONTROL FOR STRESS PERIOD  119   TIME STEP    1
    SAVE HEAD FOR ALL LAYERS
    SAVE DRAWDOWN FOR ALL LAYERS
    SAVE BUDGET
    PRINT BUDGET
 UBDSV1 SAVING "         STORAGE" ON UNIT   9 AT TIME STEP  1, STRESS PERIOD 119
 UBDSV2 SAVING "   CONSTANT HEAD" ON UNIT   9 AT TIME STEP  1, STRESS PERIOD 119
 UBDSV1 SAVING "FLOW RIGHT FACE " ON UNIT   9 AT TIME STEP  1, STRESS PERIOD 119
 UBDSV1 SAVING "FLOW FRONT FACE " ON UNIT   9 AT TIME STEP  1, STRESS PERIOD 119
 UBDSV1 SAVING "FLOW LOWER FACE " ON UNIT   9 AT TIME STEP  1, STRESS PERIOD 119
 UBDSV3 SAVING "        RECHARGE" ON UNIT   9 AT TIME STEP  1, STRESS PERIOD 119

 HEAD WILL BE SAVED ON UNIT   37 AT END OF TIME STEP    1, STRESS PERIOD  119

 DRAWDOWN WILL BE SAVED ON UNIT   38 AT END OF TIME STEP    1, STRESS PERIOD  119
1
  VOLUMETRIC BUDGET FOR ENTIRE MODEL AT END OF TIME STEP    1, STRESS PERIOD 119
  ------------------------------------------------------------------------------

     CUMULATIVE VOLUMES      L**3       RATES FOR THIS TIME STEP      L**3/T
     ------------------                 ------------------------

           IN:                                      IN:
           ---                                      ---
             STORAGE =       17041.4688               STORAGE =       5.6619E-04
       CONSTANT HEAD =       30067.6250         CONSTANT HEAD =       1.0701E-03
            RECHARGE =        1394.4247              RECHARGE =       9.7813E-05

            TOTAL IN =       48503.5195              TOTAL IN =       1.7341E-03

          OUT:                                     OUT:
          ----                                     ----
             STORAGE =       14119.0898               STORAGE =           0.0000
       CONSTANT HEAD =       34385.7617         CONSTANT HEAD =       1.7342E-03
            RECHARGE =           0.0000              RECHARGE =           0.0000

           TOTAL OUT =       48504.8516             TOTAL OUT =       1.7342E-03

            IN - OUT =          -1.3320              IN - OUT =      -9.8371E-08

 PERCENT DISCREPANCY =          -0.00     PERCENT DISCREPANCY =          -0.01






         TIME SUMMARY AT END OF TIME STEP    1 IN STRESS PERIOD  119
                    SECONDS     MINUTES      HOURS       DAYS        YEARS
                    -----------------------------------------------------------
   TIME STEP LENGTH  86400.      1440.0      24.000      1.0000     2.73785E-03
 STRESS PERIOD TIME  86400.      1440.0      24.000      1.0000     2.73785E-03
         TOTAL TIME 1.42560E+07 2.37600E+05  3960.0      165.00     0.45175    
1
1
                            STRESS PERIOD NO.  120, LENGTH =   259200.0    
                            -----------------------------------------------

                              NUMBER OF TIME STEPS =     3

                               MULTIPLIER FOR DELT =     1.000

                            INITIAL TIME STEP SIZE =   86400.00    

 REUSING RECH FROM LAST STRESS PERIOD

 CHD NO.   LAYER   ROW   COL    START HEAD        END HEAD         IFACE           
 ----------------------------------------------------------------------------------
      1      4      1      1       110.0           110.0           0.000    
      2      5      1      1       110.0           110.0           0.000    
      3      4      1      2       110.0           110.0           0.000    
      4      5      1      2       110.0           110.0           0.000    
      5      4      1      3       110.0           110.0           0.000    
      6      5      1      3       110.0           110.0           0.000    
      7      4      1      4       110.0           110.0           0.000    
      8      5      1      4       110.0           110.0           0.000    
      9      4      1      5       110.0           110.0           0.000    
     10      5      1      5       110.0           110.0           0.000    
     11      4      1      6       110.0           110.0           0.000    
     12      5      1      6       110.0           110.0           0.000    
     13      4      1      7       110.0           110.0           0.000    
     14      5      1      7       110.0           110.0           0.000    
     15      4      1      8       110.0           110.0           0.000    
     16      5      1      8       110.0           110.0           0.000    
     17      4      1      9       110.0           110.0           0.000    
     18      5      1      9       110.0           110.0           0.000    
     19      4      1     10       110.0           110.0           0.000    
     20      5      1     10       110.0           110.0           0.000    
     21      4      1     11       110.0           110.0           0.000    
     22      5      1     11       110.0           110.0           0.000    
     23      4      1     12       110.0           110.0           0.000    
     24      5      1     12       110.0           110.0           0.000    
     25      4      1     13       110.0           110.0           0.000    
     26      5      1     13       110.0           110.0           0.000    
     27      4      1     14       110.0           110.0           0.000    
     28      5      1     14       110.0           110.0           0.000    
     29      4      1     15       110.0           110.0           0.000    
     30      5      1     15       110.0           110.0           0.000    
     31      4      1     16       110.0           110.0           0.000    
     32      5      1     16       110.0           110.0           0.000    
     33      4      1     17       110.0           110.0           0.000    
     34      5      1     17       110.0           110.0           0.000    
     35      4     17     17       109.9           109.8           0.000    
     36      5     17     17       109.9           109.8           0.000    
     37      4     18     17       109.9           109.8           0.000    
     38      5     18     17       109.9           109.8           0.000    
     39      4     18     16       109.9           109.8           0.000    
     40      5     18     16       109.9           109.8           0.000    
     41      4     19     16       109.9           109.8           0.000    
     42      5     19     16       109.9           109.8           0.000    
     43      4     19     15       109.9           109.8           0.000    
     44      5     19     15       109.9           109.8           0.000    
     45      4     20     15       109.9           109.8           0.000    
     46      5     20     15       109.9           109.8           0.000    
     47      4     20     14       109.9           109.8           0.000    
     48      5     20     14       109.9           109.8           0.000    
     49      4     20     13       109.9           109.8           0.000    
     50      5     20     13       109.9           109.8           0.000    
     51      4     20     12       109.9           109.8           0.000    
     52      5     20     12       109.9           109.8           0.000    
     53      4     20     11       109.9           109.8           0.000    
     54      5     20     11       109.9           109.8           0.000    
     55      4     21     11       109.9           109.8           0.000    
     56      5     21     11       109.9           109.8           0.000    
     57      4     21     10       109.9           109.8           0.000    
     58      5     21     10       109.9           109.8           0.000    
     59      4     21      9       109.9           109.8           0.000    
     60      5     21      9       109.9           109.8           0.000    
     61      4     21      8       109.9           109.8           0.000    
     62      5     21      8       109.9           109.8           0.000    
     63      4     21      7       109.9           109.8           0.000    
     64      5     21      7       109.9           109.8           0.000    
     65      4     21      6       109.9           109.8           0.000    
     66      5     21      6       109.9           109.8           0.000    
     67      4     21      5       109.9           109.8           0.000    
     68      5     21      5       109.9           109.8           0.000    
     69      4     22      5       109.9           109.8           0.000    
     70      5     22      5       109.9           109.8           0.000    
     71      4     22      4       109.9           109.8           0.000    
     72      5     22      4       109.9           109.8           0.000    
     73      4     22      3       109.9           109.8           0.000    
     74      5     22      3       109.9           109.8           0.000    
     75      4     22      2       109.9           109.8           0.000    
     76      5     22      2       109.9           109.8           0.000    
     77      4     22      1       109.9           109.8           0.000    
     78      5     22      1       109.9           109.8           0.000    


     78 TIME-VARIANT SPECIFIED-HEAD CELLS

 SOLVING FOR HEAD 


     3 CALLS TO PCG ROUTINE FOR TIME STEP   1 IN STRESS PERIOD  120
    48 TOTAL ITERATIONS

 MAXIMUM HEAD CHANGE FOR EACH ITERATION (1 INDICATES THE FIRST INNER ITERATION):

    HEAD CHANGE    HEAD CHANGE    HEAD CHANGE    HEAD CHANGE    HEAD CHANGE 
   LAYER,ROW,COL  LAYER,ROW,COL  LAYER,ROW,COL  LAYER,ROW,COL  LAYER,ROW,COL
 ---------------------------------------------------------------------------
  1 -0.6028E-01  0  0.3945E-01  0 -0.3472E-01  0 -0.2722E-01  0 -0.3671E-01
   (  5, 21,  2)  (  5, 17,  1)  (  5, 16,  2)  (  5, 17,  1)  (  5, 19,  1)
  0 -0.2168E-01  0  0.1892E-01  0  0.1398E-01  0 -0.1276E-01  0  0.7464E-02
   (  5, 20,  1)  (  5, 18,  1)  (  5, 19,  1)  (  5, 18,  1)  (  5, 18,  4)
  0 -0.6464E-02  0  0.4114E-02  0 -0.3600E-02  0 -0.2665E-02  0 -0.1605E-02
   (  5, 17,  3)  (  5, 16,  2)  (  5, 14,  1)  (  5, 12,  5)  (  5, 19,  3)
  0 -0.1252E-02  0  0.1150E-02  0  0.7892E-03  0  0.1055E-02  0  0.3625E-03
   (  5, 18,  1)  (  5, 18,  2)  (  5, 16,  1)  (  5, 19,  3)  (  5, 17,  2)
  0 -0.3190E-03  0  0.1957E-03  0 -0.2537E-03  0 -0.2121E-03  0 -0.1228E-03
   (  5, 20,  1)  (  5, 18,  1)  (  5, 16,  2)  (  5, 19,  2)  (  5, 18,  5)
  0 -0.8504E-04  0 -0.7289E-04  0 -0.4889E-04  0 -0.3984E-04  0  0.2616E-04
   (  5, 20,  3)  (  5, 14,  2)  (  5, 18,  1)  (  5,  6,  1)  (  5,  6,  1)
  1  0.2067E-04  0 -0.2885E-04  0 -0.3295E-04  0  0.2296E-04  0 -0.1821E-04
   (  5, 16,  1)  (  5, 14,  1)  (  5, 18,  3)  (  5,  6,  1)  (  5, 19,  1)
  0  0.2317E-04  0 -0.1559E-04  0 -0.7714E-05  0  0.6226E-05  0 -0.5429E-05
   (  5, 18,  1)  (  5, 19,  1)  (  5, 18,  2)  (  5, 15,  4)  (  5, 16,  4)
  0  0.3375E-05  0 -0.2768E-05  0  0.2136E-05  0 -0.2042E-05  0  0.1210E-05
   (  5, 17,  4)  (  5, 16,  2)  (  5, 16,  1)  (  5, 19,  2)  (  5, 19,  4)
  0 -0.1111E-05  0 -0.6626E-06  1  0.3742E-06
   (  5, 20,  1)  (  5, 18,  2)  (  5, 18,  1)

 MAXIMUM RESIDUAL FOR EACH ITERATION (1 INDICATES THE FIRST INNER ITERATION):

    RESIDUAL       RESIDUAL       RESIDUAL       RESIDUAL       RESIDUAL    
   LAYER,ROW,COL  LAYER,ROW,COL  LAYER,ROW,COL  LAYER,ROW,COL  LAYER,ROW,COL
 ---------------------------------------------------------------------------
  1  0.1714E-02  0  0.1548E-02  0  0.1394E-02  0  0.1191E-02  0  0.9570E-03
   (  3, 17, 17)  (  3, 17, 17)  (  3, 17, 17)  (  3, 17, 17)  (  3, 17, 17)
  0  0.7258E-03  0  0.4917E-03  0  0.2983E-03  0  0.1758E-03  0  0.1113E-03
   (  3, 17, 17)  (  3, 17, 17)  (  3, 17, 17)  (  3, 20, 11)  (  3, 20, 11)
  0  0.7226E-04  0  0.6631E-04  0  0.5652E-04  0  0.4542E-04  0  0.3584E-04
   (  3, 20, 11)  (  4, 16, 17)  (  4, 16, 17)  (  4, 16, 17)  (  4, 16, 17)
  0  0.2820E-04  0  0.2478E-04  0  0.1843E-04  0  0.1330E-04  0  0.9168E-05
   (  4, 16, 17)  (  4, 16, 17)  (  4, 16, 17)  (  4, 16, 17)  (  4, 16, 17)
  0  0.6665E-05  0  0.6010E-05  0  0.5158E-05  0  0.3711E-05  0 -0.2333E-05
   (  4, 16, 17)  (  4, 16, 17)  (  4, 16, 17)  (  4, 16, 17)  (  3, 21,  6)
  0 -0.1449E-05  0 -0.9130E-06  0 -0.7265E-06  0 -0.3606E-06  0  0.2444E-06
   (  3, 21,  6)  (  3, 21,  6)  (  3, 21,  6)  (  3, 21,  6)  (  3, 17, 17)
  1 -0.2736E-06  0 -0.2412E-06  0 -0.1778E-06  0  0.1421E-06  0  0.1273E-06
   (  3, 21,  5)  (  3, 21,  5)  (  3, 21,  5)  (  4, 16, 17)  (  4, 16, 17)
  0  0.1071E-06  0 -0.9426E-07  0  0.7522E-07  0  0.5468E-07  0  0.4152E-07
   (  4, 16, 17)  (  4, 18, 14)  (  4, 20,  2)  (  4, 20,  2)  (  4, 20,  2)
  0  0.3061E-07  0  0.2603E-07  0  0.2280E-07  0  0.1819E-07  0  0.1504E-07
   (  4, 16, 17)  (  4, 16, 17)  (  4, 16, 17)  (  4, 16, 17)  (  4, 16, 17)
  0  0.1187E-07  0  0.9640E-08  1  0.9468E-08
   (  4, 16, 17)  (  4, 16, 17)  (  4, 16, 17)



 OUTPUT CONTROL FOR STRESS PERIOD  120   TIME STEP    1
    SAVE HEAD FOR ALL LAYERS
    SAVE DRAWDOWN FOR ALL LAYERS
    SAVE BUDGET
    PRINT BUDGET
 UBDSV1 SAVING "         STORAGE" ON UNIT   9 AT TIME STEP  1, STRESS PERIOD 120
 UBDSV2 SAVING "   CONSTANT HEAD" ON UNIT   9 AT TIME STEP  1, STRESS PERIOD 120
 UBDSV1 SAVING "FLOW RIGHT FACE " ON UNIT   9 AT TIME STEP  1, STRESS PERIOD 120
 UBDSV1 SAVING "FLOW FRONT FACE " ON UNIT   9 AT TIME STEP  1, STRESS PERIOD 120
 UBDSV1 SAVING "FLOW LOWER FACE " ON UNIT   9 AT TIME STEP  1, STRESS PERIOD 120
 UBDSV3 SAVING "        RECHARGE" ON UNIT   9 AT TIME STEP  1, STRESS PERIOD 120

 HEAD WILL BE SAVED ON UNIT   37 AT END OF TIME STEP    1, STRESS PERIOD  120

 DRAWDOWN WILL BE SAVED ON UNIT   38 AT END OF TIME STEP    1, STRESS PERIOD  120
1
  VOLUMETRIC BUDGET FOR ENTIRE MODEL AT END OF TIME STEP    1, STRESS PERIOD 120
  ------------------------------------------------------------------------------

     CUMULATIVE VOLUMES      L**3       RATES FOR THIS TIME STEP      L**3/T
     ------------------                 ------------------------

           IN:                                      IN:
           ---                                      ---
             STORAGE =       17103.7852               STORAGE =       7.2126E-04
       CONSTANT HEAD =       30174.4434         CONSTANT HEAD =       1.2363E-03
            RECHARGE =        1402.8757              RECHARGE =       9.7813E-05

            TOTAL IN =       48681.1016              TOTAL IN =       2.0554E-03

          OUT:                                     OUT:
          ----                                     ----
             STORAGE =       14119.0898               STORAGE =           0.0000
       CONSTANT HEAD =       34563.3594         CONSTANT HEAD =       2.0555E-03
            RECHARGE =           0.0000              RECHARGE =           0.0000

           TOTAL OUT =       48682.4492             TOTAL OUT =       2.0555E-03

            IN - OUT =          -1.3477              IN - OUT =      -1.1781E-07

 PERCENT DISCREPANCY =          -0.00     PERCENT DISCREPANCY =          -0.01






         TIME SUMMARY AT END OF TIME STEP    1 IN STRESS PERIOD  120
                    SECONDS     MINUTES      HOURS       DAYS        YEARS
                    -----------------------------------------------------------
   TIME STEP LENGTH  86400.      1440.0      24.000      1.0000     2.73785E-03
 STRESS PERIOD TIME  86400.      1440.0      24.000      1.0000     2.73785E-03
         TOTAL TIME 1.43424E+07 2.39040E+05  3984.0      166.00     0.45448    
1

 SOLVING FOR HEAD 
     3 CALLS TO PCG ROUTINE FOR TIME STEP   2 IN STRESS PERIOD  120
    48 TOTAL ITERATIONS

 MAXIMUM HEAD CHANGE FOR EACH ITERATION (1 INDICATES THE FIRST INNER ITERATION):

    HEAD CHANGE    HEAD CHANGE    HEAD CHANGE    HEAD CHANGE    HEAD CHANGE 
   LAYER,ROW,COL  LAYER,ROW,COL  LAYER,ROW,COL  LAYER,ROW,COL  LAYER,ROW,COL
 ---------------------------------------------------------------------------
  1 -0.6122E-01  0  0.3983E-01  0 -0.3515E-01  0 -0.2748E-01  0 -0.3663E-01
   (  5, 21,  2)  (  5, 17,  1)  (  5, 16,  2)  (  5, 17,  1)  (  5, 19,  1)
  0 -0.2199E-01  0  0.1905E-01  0  0.1404E-01  0 -0.1297E-01  0  0.7471E-02
   (  5, 20,  1)  (  5, 18,  1)  (  5, 19,  1)  (  5, 18,  1)  (  5, 18,  4)
  0 -0.6011E-02  0  0.4507E-02  0 -0.2687E-02  0  0.2426E-02  0 -0.2016E-02
   (  5, 17,  3)  (  5, 16,  3)  (  5, 15,  1)  (  5, 17,  2)  (  5, 19,  3)
  0  0.1480E-02  0 -0.1114E-02  0  0.9391E-03  0  0.1048E-02  0 -0.3661E-03
   (  5, 18,  2)  (  5, 18,  1)  (  5, 16,  1)  (  5, 19,  3)  (  5, 18,  3)
  0 -0.3392E-03  0  0.2653E-03  0 -0.2295E-03  0  0.2142E-03  0 -0.1241E-03
   (  5, 20,  1)  (  5, 20,  3)  (  5, 16,  2)  (  5, 16,  1)  (  5, 18,  5)
  0 -0.8866E-04  0  0.6063E-04  0  0.6190E-04  0 -0.4026E-04  0  0.2303E-04
   (  5, 20,  3)  (  5, 19,  2)  (  5, 15,  4)  (  5,  6,  1)  (  5,  6,  1)
  1 -0.3169E-04  0  0.3466E-04  0 -0.2715E-04  0  0.2967E-04  0 -0.2667E-04
   (  5, 20,  1)  (  5, 14,  2)  (  5, 14,  1)  (  5, 18,  2)  (  5, 19,  2)
  0  0.2317E-04  0 -0.1788E-04  0  0.8834E-05  0 -0.7072E-05  0  0.4344E-05
   (  5, 18,  1)  (  5, 19,  1)  (  5, 12,  5)  (  5, 16,  3)  (  5, 17,  5)
  0 -0.4604E-05  0 -0.2374E-05  0  0.2404E-05  0 -0.2101E-05  0  0.1554E-05
   (  5, 15,  4)  (  5, 21,  1)  (  5, 16,  1)  (  5, 19,  2)  (  5, 19,  4)
  0 -0.1303E-05  0  0.7083E-06  1 -0.5364E-06
   (  5, 20,  1)  (  5, 17,  1)  (  5, 18,  1)

 MAXIMUM RESIDUAL FOR EACH ITERATION (1 INDICATES THE FIRST INNER ITERATION):

    RESIDUAL       RESIDUAL       RESIDUAL       RESIDUAL       RESIDUAL    
   LAYER,ROW,COL  LAYER,ROW,COL  LAYER,ROW,COL  LAYER,ROW,COL  LAYER,ROW,COL
 ---------------------------------------------------------------------------
  1  0.1713E-02  0  0.1546E-02  0  0.1393E-02  0  0.1193E-02  0  0.9625E-03
   (  3, 17, 17)  (  3, 17, 17)  (  3, 17, 17)  (  3, 17, 17)  (  3, 17, 17)
  0  0.7325E-03  0  0.4969E-03  0  0.3006E-03  0  0.1764E-03  0  0.1116E-03
   (  3, 17, 17)  (  3, 17, 17)  (  3, 17, 17)  (  3, 20, 11)  (  3, 20, 11)
  0  0.7209E-04  0  0.5747E-04  0  0.5016E-04  0  0.4488E-04  0  0.3577E-04
   (  3, 20, 11)  (  4, 16, 17)  (  4, 16, 17)  (  4, 16, 17)  (  4, 16, 17)
  0  0.3154E-04  0  0.2481E-04  0  0.1841E-04  0  0.1331E-04  0  0.9217E-05
   (  4, 16, 17)  (  4, 16, 17)  (  4, 16, 17)  (  4, 16, 17)  (  4, 16, 17)
  0  0.7405E-05  0  0.5732E-05  0  0.4709E-05  0  0.3706E-05  0 -0.2355E-05
   (  4, 16, 17)  (  4, 16, 17)  (  4, 16, 17)  (  4, 16, 17)  (  3, 21,  6)
  0 -0.1474E-05  0 -0.1218E-05  0 -0.7394E-06  0 -0.3675E-06  0  0.2485E-06
   (  3, 21,  6)  (  3, 21,  6)  (  3, 21,  6)  (  3, 21,  6)  (  3, 17, 17)
  1 -0.2732E-06  0 -0.1953E-06  0 -0.1704E-06  0  0.1461E-06  0  0.1262E-06
   (  3, 21,  5)  (  3, 21,  5)  (  3, 21,  5)  (  4, 16, 17)  (  4, 16, 17)
  0  0.1093E-06  0 -0.1033E-06  0 -0.7997E-07  0  0.5879E-07  0  0.4013E-07
   (  4, 16, 17)  (  4, 18, 14)  (  4, 18, 14)  (  4, 20,  2)  (  4, 16, 17)
  0  0.3123E-07  0  0.2444E-07  0  0.2192E-07  0  0.1887E-07  0  0.1556E-07
   (  4, 16, 17)  (  4, 16, 17)  (  4, 16, 17)  (  4, 16, 17)  (  4, 16, 17)
  0  0.1215E-07  0  0.1083E-07  1  0.1068E-07
   (  4, 16, 17)  (  4, 16, 17)  (  4, 16, 17)



 OUTPUT CONTROL FOR STRESS PERIOD  120   TIME STEP    2
    SAVE HEAD FOR ALL LAYERS
    SAVE DRAWDOWN FOR ALL LAYERS
    SAVE BUDGET
    PRINT BUDGET
 UBDSV1 SAVING "         STORAGE" ON UNIT   9 AT TIME STEP  2, STRESS PERIOD 120
 UBDSV2 SAVING "   CONSTANT HEAD" ON UNIT   9 AT TIME STEP  2, STRESS PERIOD 120
 UBDSV1 SAVING "FLOW RIGHT FACE " ON UNIT   9 AT TIME STEP  2, STRESS PERIOD 120
 UBDSV1 SAVING "FLOW FRONT FACE " ON UNIT   9 AT TIME STEP  2, STRESS PERIOD 120
 UBDSV1 SAVING "FLOW LOWER FACE " ON UNIT   9 AT TIME STEP  2, STRESS PERIOD 120
 UBDSV3 SAVING "        RECHARGE" ON UNIT   9 AT TIME STEP  2, STRESS PERIOD 120

 HEAD WILL BE SAVED ON UNIT   37 AT END OF TIME STEP    2, STRESS PERIOD  120

 DRAWDOWN WILL BE SAVED ON UNIT   38 AT END OF TIME STEP    2, STRESS PERIOD  120
1
  VOLUMETRIC BUDGET FOR ENTIRE MODEL AT END OF TIME STEP    2, STRESS PERIOD 120
  ------------------------------------------------------------------------------

     CUMULATIVE VOLUMES      L**3       RATES FOR THIS TIME STEP      L**3/T
     ------------------                 ------------------------

           IN:                                      IN:
           ---                                      ---
             STORAGE =       17170.7793               STORAGE =       7.7539E-04
       CONSTANT HEAD =       30296.9922         CONSTANT HEAD =       1.4184E-03
            RECHARGE =        1411.3268              RECHARGE =       9.7813E-05

            TOTAL IN =       48879.1016              TOTAL IN =       2.2916E-03

          OUT:                                     OUT:
          ----                                     ----
             STORAGE =       14119.0898               STORAGE =           0.0000
       CONSTANT HEAD =       34761.3633         CONSTANT HEAD =       2.2917E-03
            RECHARGE =           0.0000              RECHARGE =           0.0000

           TOTAL OUT =       48880.4531             TOTAL OUT =       2.2917E-03

            IN - OUT =          -1.3516              IN - OUT =      -1.1176E-07

 PERCENT DISCREPANCY =          -0.00     PERCENT DISCREPANCY =          -0.00






         TIME SUMMARY AT END OF TIME STEP    2 IN STRESS PERIOD  120
                    SECONDS     MINUTES      HOURS       DAYS        YEARS
                    -----------------------------------------------------------
   TIME STEP LENGTH  86400.      1440.0      24.000      1.0000     2.73785E-03
 STRESS PERIOD TIME 1.72800E+05  2880.0      48.000      2.0000     5.47570E-03
         TOTAL TIME 1.44288E+07 2.40480E+05  4008.0      167.00     0.45722    
1

 SOLVING FOR HEAD 
     3 CALLS TO PCG ROUTINE FOR TIME STEP   3 IN STRESS PERIOD  120
    48 TOTAL ITERATIONS

 MAXIMUM HEAD CHANGE FOR EACH ITERATION (1 INDICATES THE FIRST INNER ITERATION):

    HEAD CHANGE    HEAD CHANGE    HEAD CHANGE    HEAD CHANGE    HEAD CHANGE 
   LAYER,ROW,COL  LAYER,ROW,COL  LAYER,ROW,COL  LAYER,ROW,COL  LAYER,ROW,COL
 ---------------------------------------------------------------------------
  1 -0.6154E-01  0  0.3997E-01  0 -0.3530E-01  0 -0.2758E-01  0 -0.3661E-01
   (  5, 21,  2)  (  5, 17,  1)  (  5, 16,  2)  (  5, 17,  1)  (  5, 19,  1)
  0 -0.2211E-01  0  0.1909E-01  0  0.1406E-01  0 -0.1305E-01  0  0.7509E-02
   (  5, 20,  1)  (  5, 18,  1)  (  5, 19,  1)  (  5, 18,  1)  (  5, 18,  4)
  0 -0.6268E-02  0  0.5286E-02  0 -0.3268E-02  0 -0.2643E-02  0 -0.1691E-02
   (  5, 17,  3)  (  5, 16,  3)  (  5, 15,  1)  (  5, 12,  5)  (  5, 19,  3)
  0  0.1393E-02  0  0.9009E-03  0  0.7560E-03  0  0.1092E-02  0  0.3634E-03
   (  5, 18,  3)  (  5, 17,  1)  (  5, 16,  3)  (  5, 19,  3)  (  5, 17,  2)
  0 -0.3093E-03  0 -0.2628E-03  0  0.1905E-03  0 -0.2300E-03  0 -0.1256E-03
   (  5, 17,  5)  (  5, 16,  2)  (  5, 18,  1)  (  5, 19,  2)  (  5, 18,  5)
  0 -0.8190E-04  0 -0.5404E-04  0 -0.5055E-04  0  0.3603E-04  0  0.2523E-04
   (  5, 20,  3)  (  5, 14,  2)  (  5, 19,  2)  (  5, 18,  1)  (  5,  6,  1)
  1  0.2664E-04  0 -0.2905E-04  0  0.3110E-04  0 -0.2576E-04  0  0.2964E-04
   (  5, 19,  1)  (  5, 17,  2)  (  5, 11,  1)  (  5, 13,  2)  (  5,  6,  1)
  0  0.2260E-04  0 -0.2185E-04  0 -0.9429E-05  0  0.5947E-05  0 -0.4875E-05
   (  5, 18,  1)  (  5, 19,  1)  (  5, 18,  2)  (  5, 15,  4)  (  5, 16,  4)
  0  0.3521E-05  0  0.2641E-05  0 -0.2530E-05  0  0.1969E-05  0  0.1281E-05
   (  5, 17,  4)  (  5, 18,  2)  (  5, 16,  2)  (  5, 16,  1)  (  5, 19,  4)
  0 -0.1245E-05  0  0.7092E-06  1 -0.4904E-06
   (  5, 20,  1)  (  5, 17,  1)  (  5, 18,  1)

 MAXIMUM RESIDUAL FOR EACH ITERATION (1 INDICATES THE FIRST INNER ITERATION):

    RESIDUAL       RESIDUAL       RESIDUAL       RESIDUAL       RESIDUAL    
   LAYER,ROW,COL  LAYER,ROW,COL  LAYER,ROW,COL  LAYER,ROW,COL  LAYER,ROW,COL
 ---------------------------------------------------------------------------
  1  0.1713E-02  0  0.1546E-02  0  0.1393E-02  0  0.1193E-02  0  0.9640E-03
   (  3, 17, 17)  (  3, 17, 17)  (  3, 17, 17)  (  3, 17, 17)  (  3, 17, 17)
  0  0.7342E-03  0  0.4984E-03  0  0.3012E-03  0  0.1764E-03  0  0.1116E-03
   (  3, 17, 17)  (  3, 17, 17)  (  3, 17, 17)  (  3, 20, 11)  (  3, 20, 11)
  0  0.7207E-04  0  0.6044E-04  0  0.5568E-04  0  0.4480E-04  0  0.3548E-04
   (  3, 20, 11)  (  4, 16, 17)  (  4, 16, 17)  (  4, 16, 17)  (  4, 16, 17)
  0  0.2627E-04  0  0.2325E-04  0  0.1838E-04  0  0.1331E-04  0  0.9161E-05
   (  4, 16, 17)  (  4, 16, 17)  (  4, 16, 17)  (  4, 16, 17)  (  4, 16, 17)
  0  0.6443E-05  0  0.5648E-05  0  0.4755E-05  0  0.3690E-05  0 -0.2360E-05
   (  4, 16, 17)  (  4, 16, 17)  (  4, 16, 17)  (  4, 16, 17)  (  3, 21,  6)
  0 -0.1466E-05  0 -0.7977E-06  0 -0.4653E-06  0 -0.3640E-06  0  0.2427E-06
   (  3, 21,  6)  (  3, 21,  6)  (  3, 21,  6)  (  3, 21,  6)  (  3, 17, 17)
  1 -0.2727E-06  0 -0.2551E-06  0 -0.1771E-06  0  0.1510E-06  0  0.1241E-06
   (  3, 21,  5)  (  3, 21,  5)  (  3, 21,  5)  (  4, 16, 17)  (  4, 16, 17)
  0  0.1072E-06  0 -0.1025E-06  0  0.8210E-07  0  0.5724E-07  0  0.4277E-07
   (  4, 16, 17)  (  4, 18, 14)  (  4, 20,  2)  (  4, 20,  2)  (  4, 20,  2)
  0  0.3055E-07  0  0.2602E-07  0  0.2311E-07  0  0.1857E-07  0  0.1530E-07
   (  4, 16, 17)  (  4, 16, 17)  (  4, 16, 17)  (  4, 16, 17)  (  4, 16, 17)
  0  0.1197E-07  0  0.9493E-08  1  0.9298E-08
   (  4, 16, 17)  (  4, 16, 17)  (  4, 16, 17)



 OUTPUT CONTROL FOR STRESS PERIOD  120   TIME STEP    3
    SAVE HEAD FOR ALL LAYERS
    SAVE DRAWDOWN FOR ALL LAYERS
    SAVE BUDGET
    PRINT BUDGET
 UBDSV1 SAVING "         STORAGE" ON UNIT   9 AT TIME STEP  3, STRESS PERIOD 120
 UBDSV2 SAVING "   CONSTANT HEAD" ON UNIT   9 AT TIME STEP  3, STRESS PERIOD 120
 UBDSV1 SAVING "FLOW RIGHT FACE " ON UNIT   9 AT TIME STEP  3, STRESS PERIOD 120
 UBDSV1 SAVING "FLOW FRONT FACE " ON UNIT   9 AT TIME STEP  3, STRESS PERIOD 120
 UBDSV1 SAVING "FLOW LOWER FACE " ON UNIT   9 AT TIME STEP  3, STRESS PERIOD 120
 UBDSV3 SAVING "        RECHARGE" ON UNIT   9 AT TIME STEP  3, STRESS PERIOD 120

 HEAD WILL BE SAVED ON UNIT   37 AT END OF TIME STEP    3, STRESS PERIOD  120

 DRAWDOWN WILL BE SAVED ON UNIT   38 AT END OF TIME STEP    3, STRESS PERIOD  120
1
  VOLUMETRIC BUDGET FOR ENTIRE MODEL AT END OF TIME STEP    3, STRESS PERIOD 120
  ------------------------------------------------------------------------------

     CUMULATIVE VOLUMES      L**3       RATES FOR THIS TIME STEP      L**3/T
     ------------------                 ------------------------

           IN:                                      IN:
           ---                                      ---
             STORAGE =       17239.3516               STORAGE =       7.9367E-04
       CONSTANT HEAD =       30436.3457         CONSTANT HEAD =       1.6129E-03
            RECHARGE =        1419.7778              RECHARGE =       9.7813E-05

            TOTAL IN =       49095.4727              TOTAL IN =       2.5044E-03

          OUT:                                     OUT:
          ----                                     ----
             STORAGE =       14119.0898               STORAGE =           0.0000
       CONSTANT HEAD =       34977.7500         CONSTANT HEAD =       2.5045E-03
            RECHARGE =           0.0000              RECHARGE =           0.0000

           TOTAL OUT =       49096.8398             TOTAL OUT =       2.5045E-03

            IN - OUT =          -1.3672              IN - OUT =      -9.3831E-08

 PERCENT DISCREPANCY =          -0.00     PERCENT DISCREPANCY =          -0.00






         TIME SUMMARY AT END OF TIME STEP    3 IN STRESS PERIOD  120
                    SECONDS     MINUTES      HOURS       DAYS        YEARS
                    -----------------------------------------------------------
   TIME STEP LENGTH  86400.      1440.0      24.000      1.0000     2.73785E-03
 STRESS PERIOD TIME 2.59200E+05  4320.0      72.000      3.0000     8.21355E-03
         TOTAL TIME 1.45152E+07 2.41920E+05  4032.0      168.00     0.45996    
1
1
                            STRESS PERIOD NO.  121, LENGTH =   86400.00    
                            -----------------------------------------------

                              NUMBER OF TIME STEPS =     1

                               MULTIPLIER FOR DELT =     1.000

                            INITIAL TIME STEP SIZE =   86400.00    

 REUSING RECH FROM LAST STRESS PERIOD

 CHD NO.   LAYER   ROW   COL    START HEAD        END HEAD         IFACE           
 ----------------------------------------------------------------------------------
      1      4      1      1       110.0           110.0           0.000    
      2      5      1      1       110.0           110.0           0.000    
      3      4      1      2       110.0           110.0           0.000    
      4      5      1      2       110.0           110.0           0.000    
      5      4      1      3       110.0           110.0           0.000    
      6      5      1      3       110.0           110.0           0.000    
      7      4      1      4       110.0           110.0           0.000    
      8      5      1      4       110.0           110.0           0.000    
      9      4      1      5       110.0           110.0           0.000    
     10      5      1      5       110.0           110.0           0.000    
     11      4      1      6       110.0           110.0           0.000    
     12      5      1      6       110.0           110.0           0.000    
     13      4      1      7       110.0           110.0           0.000    
     14      5      1      7       110.0           110.0           0.000    
     15      4      1      8       110.0           110.0           0.000    
     16      5      1      8       110.0           110.0           0.000    
     17      4      1      9       110.0           110.0           0.000    
     18      5      1      9       110.0           110.0           0.000    
     19      4      1     10       110.0           110.0           0.000    
     20      5      1     10       110.0           110.0           0.000    
     21      4      1     11       110.0           110.0           0.000    
     22      5      1     11       110.0           110.0           0.000    
     23      4      1     12       110.0           110.0           0.000    
     24      5      1     12       110.0           110.0           0.000    
     25      4      1     13       110.0           110.0           0.000    
     26      5      1     13       110.0           110.0           0.000    
     27      4      1     14       110.0           110.0           0.000    
     28      5      1     14       110.0           110.0           0.000    
     29      4      1     15       110.0           110.0           0.000    
     30      5      1     15       110.0           110.0           0.000    
     31      4      1     16       110.0           110.0           0.000    
     32      5      1     16       110.0           110.0           0.000    
     33      4      1     17       110.0           110.0           0.000    
     34      5      1     17       110.0           110.0           0.000    
     35      4     17     17       109.8           109.8           0.000    
     36      5     17     17       109.8           109.8           0.000    
     37      4     18     17       109.8           109.8           0.000    
     38      5     18     17       109.8           109.8           0.000    
     39      4     18     16       109.8           109.8           0.000    
     40      5     18     16       109.8           109.8           0.000    
     41      4     19     16       109.8           109.8           0.000    
     42      5     19     16       109.8           109.8           0.000    
     43      4     19     15       109.8           109.8           0.000    
     44      5     19     15       109.8           109.8           0.000    
     45      4     20     15       109.8           109.8           0.000    
     46      5     20     15       109.8           109.8           0.000    
     47      4     20     14       109.8           109.8           0.000    
     48      5     20     14       109.8           109.8           0.000    
     49      4     20     13       109.8           109.8           0.000    
     50      5     20     13       109.8           109.8           0.000    
     51      4     20     12       109.8           109.8           0.000    
     52      5     20     12       109.8           109.8           0.000    
     53      4     20     11       109.8           109.8           0.000    
     54      5     20     11       109.8           109.8           0.000    
     55      4     21     11       109.8           109.8           0.000    
     56      5     21     11       109.8           109.8           0.000    
     57      4     21     10       109.8           109.8           0.000    
     58      5     21     10       109.8           109.8           0.000    
     59      4     21      9       109.8           109.8           0.000    
     60      5     21      9       109.8           109.8           0.000    
     61      4     21      8       109.8           109.8           0.000    
     62      5     21      8       109.8           109.8           0.000    
     63      4     21      7       109.8           109.8           0.000    
     64      5     21      7       109.8           109.8           0.000    
     65      4     21      6       109.8           109.8           0.000    
     66      5     21      6       109.8           109.8           0.000    
     67      4     21      5       109.8           109.8           0.000    
     68      5     21      5       109.8           109.8           0.000    
     69      4     22      5       109.8           109.8           0.000    
     70      5     22      5       109.8           109.8           0.000    
     71      4     22      4       109.8           109.8           0.000    
     72      5     22      4       109.8           109.8           0.000    
     73      4     22      3       109.8           109.8           0.000    
     74      5     22      3       109.8           109.8           0.000    
     75      4     22      2       109.8           109.8           0.000    
     76      5     22      2       109.8           109.8           0.000    
     77      4     22      1       109.8           109.8           0.000    
     78      5     22      1       109.8           109.8           0.000    


     78 TIME-VARIANT SPECIFIED-HEAD CELLS

 SOLVING FOR HEAD 


     3 CALLS TO PCG ROUTINE FOR TIME STEP   1 IN STRESS PERIOD  121
    46 TOTAL ITERATIONS

 MAXIMUM HEAD CHANGE FOR EACH ITERATION (1 INDICATES THE FIRST INNER ITERATION):

    HEAD CHANGE    HEAD CHANGE    HEAD CHANGE    HEAD CHANGE    HEAD CHANGE 
   LAYER,ROW,COL  LAYER,ROW,COL  LAYER,ROW,COL  LAYER,ROW,COL  LAYER,ROW,COL
 ---------------------------------------------------------------------------
  1 -0.2719E-01  0  0.1728E-01  0  0.1425E-01  0  0.1066E-01  0 -0.1127E-01
   (  5, 21,  2)  (  5, 18,  1)  (  5, 20,  1)  (  5, 21,  2)  (  5, 19,  1)
  0 -0.6909E-02  0  0.5568E-02  0 -0.4000E-02  0 -0.3147E-02  0 -0.2005E-02
   (  5, 17,  4)  (  5, 18,  1)  (  5, 17,  1)  (  5, 18,  1)  (  5, 19,  1)
  0 -0.1638E-02  0  0.9832E-03  0  0.7520E-03  0 -0.8122E-03  0  0.4019E-03
   (  5, 14,  5)  (  5, 13,  5)  (  5, 17,  2)  (  5, 15,  2)  (  5, 11,  5)
  0 -0.4462E-03  0  0.4376E-03  0 -0.2400E-03  0  0.2810E-03  0  0.1232E-03
   (  5, 18,  1)  (  5, 18,  2)  (  5, 17,  2)  (  5, 19,  3)  (  5, 17,  2)
  0 -0.9161E-04  0  0.5730E-04  0 -0.7050E-04  0  0.4204E-04  0 -0.3953E-04
   (  5, 17,  1)  (  5, 19,  1)  (  5, 16,  2)  (  5, 17,  3)  (  5, 18,  5)
  0 -0.2290E-04  0  0.1494E-04  0 -0.1731E-04  0 -0.1278E-04  0  0.8234E-05
   (  5, 20,  3)  (  5, 19,  2)  (  5, 19,  1)  (  5,  6,  1)  (  5,  6,  1)
  1  0.1914E-04  0 -0.2249E-04  0 -0.1536E-04  0 -0.1618E-04  0 -0.1825E-04
   (  5, 16,  1)  (  5, 14,  1)  (  5, 18,  3)  (  5, 13,  2)  (  5, 19,  1)
  0  0.1191E-04  0 -0.7992E-05  0  0.5326E-05  0  0.3418E-05  0  0.2635E-05
   (  5, 18,  1)  (  5, 14,  4)  (  5, 15,  4)  (  5,  6,  1)  (  5, 13,  4)
  0  0.1970E-05  0 -0.1651E-05  0  0.1633E-05  0 -0.1096E-05  0  0.6967E-06
   (  5, 20,  2)  (  5, 16,  2)  (  5, 18,  2)  (  5, 19,  3)  (  5, 19,  4)
  1 -0.4814E-06
   (  5, 20,  1)

 MAXIMUM RESIDUAL FOR EACH ITERATION (1 INDICATES THE FIRST INNER ITERATION):

    RESIDUAL       RESIDUAL       RESIDUAL       RESIDUAL       RESIDUAL    
   LAYER,ROW,COL  LAYER,ROW,COL  LAYER,ROW,COL  LAYER,ROW,COL  LAYER,ROW,COL
 ---------------------------------------------------------------------------
  1  0.2679E-03  0  0.2285E-03  0  0.1969E-03  0  0.1622E-03  0  0.1239E-03
   (  3, 17, 17)  (  3, 17, 17)  (  3, 17, 17)  (  3, 17, 17)  (  3, 17, 17)
  0  0.8839E-04  0  0.5547E-04  0 -0.3536E-04  0 -0.2421E-04  0 -0.1829E-04
   (  3, 17, 17)  (  3, 17, 17)  (  5, 16, 17)  (  5, 16, 17)  (  5, 16, 17)
  0 -0.1418E-04  0 -0.9930E-05  0 -0.8388E-05  0  0.6281E-05  0 -0.4549E-05
   (  5, 16, 17)  (  5, 16, 17)  (  5, 16, 17)  (  4, 16, 17)  (  4, 21,  2)
  0  0.3632E-05  0 -0.2774E-05  0 -0.2199E-05  0 -0.1810E-05  0 -0.1390E-05
   (  4, 16, 17)  (  4, 21,  2)  (  3, 21,  6)  (  3, 21,  6)  (  3, 21,  6)
  0 -0.1073E-05  0 -0.9661E-06  0 -0.8426E-06  0 -0.6959E-06  0 -0.4453E-06
   (  3, 21,  6)  (  3, 21,  6)  (  3, 21,  6)  (  3, 21,  6)  (  3, 21,  6)
  0 -0.2686E-06  0 -0.2282E-06  0  0.1252E-06  0  0.8058E-07  0  0.5715E-07
   (  3, 21,  6)  (  3, 21,  6)  (  5, 15, 17)  (  5, 15, 17)  (  5, 15, 17)
  1  0.1295E-06  0  0.1053E-06  0  0.7615E-07  0  0.5592E-07  0  0.5500E-07
   (  2,  8,  5)  (  2,  8,  5)  (  2,  8,  5)  (  2,  8,  5)  (  5,  6,  1)
  0  0.4489E-07  0  0.2465E-07  0 -0.2001E-07  0 -0.1547E-07  0 -0.1228E-07
   (  5,  6,  1)  (  5,  3,  8)  (  4, 18, 14)  (  4, 18, 14)  (  3,  8,  5)
  0 -0.1007E-07  0 -0.8880E-08  0 -0.7540E-08  0 -0.5932E-08  0 -0.4548E-08
   (  3,  8,  5)  (  3,  8,  5)  (  3,  8,  5)  (  3,  8,  5)  (  3,  8,  5)
  1 -0.4383E-08
   (  3,  8,  5)



 OUTPUT CONTROL FOR STRESS PERIOD  121   TIME STEP    1
    SAVE HEAD FOR ALL LAYERS
    SAVE DRAWDOWN FOR ALL LAYERS
    SAVE BUDGET
    PRINT BUDGET
 UBDSV1 SAVING "         STORAGE" ON UNIT   9 AT TIME STEP  1, STRESS PERIOD 121
 UBDSV2 SAVING "   CONSTANT HEAD" ON UNIT   9 AT TIME STEP  1, STRESS PERIOD 121
 UBDSV1 SAVING "FLOW RIGHT FACE " ON UNIT   9 AT TIME STEP  1, STRESS PERIOD 121
 UBDSV1 SAVING "FLOW FRONT FACE " ON UNIT   9 AT TIME STEP  1, STRESS PERIOD 121
 UBDSV1 SAVING "FLOW LOWER FACE " ON UNIT   9 AT TIME STEP  1, STRESS PERIOD 121
 UBDSV3 SAVING "        RECHARGE" ON UNIT   9 AT TIME STEP  1, STRESS PERIOD 121

 HEAD WILL BE SAVED ON UNIT   37 AT END OF TIME STEP    1, STRESS PERIOD  121

 DRAWDOWN WILL BE SAVED ON UNIT   38 AT END OF TIME STEP    1, STRESS PERIOD  121
1
  VOLUMETRIC BUDGET FOR ENTIRE MODEL AT END OF TIME STEP    1, STRESS PERIOD 121
  ------------------------------------------------------------------------------

     CUMULATIVE VOLUMES      L**3       RATES FOR THIS TIME STEP      L**3/T
     ------------------                 ------------------------

           IN:                                      IN:
           ---                                      ---
             STORAGE =       17287.5059               STORAGE =       5.5735E-04
       CONSTANT HEAD =       30564.1602         CONSTANT HEAD =       1.4793E-03
            RECHARGE =        1428.2289              RECHARGE =       9.7813E-05

            TOTAL IN =       49279.8945              TOTAL IN =       2.1345E-03

          OUT:                                     OUT:
          ----                                     ----
             STORAGE =       14119.0898               STORAGE =           0.0000
       CONSTANT HEAD =       35162.1797         CONSTANT HEAD =       2.1346E-03
            RECHARGE =           0.0000              RECHARGE =           0.0000

           TOTAL OUT =       49281.2695             TOTAL OUT =       2.1346E-03

            IN - OUT =          -1.3750              IN - OUT =      -1.0338E-07

 PERCENT DISCREPANCY =          -0.00     PERCENT DISCREPANCY =          -0.00






         TIME SUMMARY AT END OF TIME STEP    1 IN STRESS PERIOD  121
                    SECONDS     MINUTES      HOURS       DAYS        YEARS
                    -----------------------------------------------------------
   TIME STEP LENGTH  86400.      1440.0      24.000      1.0000     2.73785E-03
 STRESS PERIOD TIME  86400.      1440.0      24.000      1.0000     2.73785E-03
         TOTAL TIME 1.46016E+07 2.43360E+05  4056.0      169.00     0.46270    
1
1
                            STRESS PERIOD NO.  122, LENGTH =   172800.0    
                            -----------------------------------------------

                              NUMBER OF TIME STEPS =     2

                               MULTIPLIER FOR DELT =     1.000

                            INITIAL TIME STEP SIZE =   86400.00    

 REUSING RECH FROM LAST STRESS PERIOD

 CHD NO.   LAYER   ROW   COL    START HEAD        END HEAD         IFACE           
 ----------------------------------------------------------------------------------
      1      4      1      1       110.0           110.1           0.000    
      2      5      1      1       110.0           110.1           0.000    
      3      4      1      2       110.0           110.1           0.000    
      4      5      1      2       110.0           110.1           0.000    
      5      4      1      3       110.0           110.1           0.000    
      6      5      1      3       110.0           110.1           0.000    
      7      4      1      4       110.0           110.1           0.000    
      8      5      1      4       110.0           110.1           0.000    
      9      4      1      5       110.0           110.1           0.000    
     10      5      1      5       110.0           110.1           0.000    
     11      4      1      6       110.0           110.1           0.000    
     12      5      1      6       110.0           110.1           0.000    
     13      4      1      7       110.0           110.1           0.000    
     14      5      1      7       110.0           110.1           0.000    
     15      4      1      8       110.0           110.1           0.000    
     16      5      1      8       110.0           110.1           0.000    
     17      4      1      9       110.0           110.1           0.000    
     18      5      1      9       110.0           110.1           0.000    
     19      4      1     10       110.0           110.1           0.000    
     20      5      1     10       110.0           110.1           0.000    
     21      4      1     11       110.0           110.1           0.000    
     22      5      1     11       110.0           110.1           0.000    
     23      4      1     12       110.0           110.1           0.000    
     24      5      1     12       110.0           110.1           0.000    
     25      4      1     13       110.0           110.1           0.000    
     26      5      1     13       110.0           110.1           0.000    
     27      4      1     14       110.0           110.1           0.000    
     28      5      1     14       110.0           110.1           0.000    
     29      4      1     15       110.0           110.1           0.000    
     30      5      1     15       110.0           110.1           0.000    
     31      4      1     16       110.0           110.1           0.000    
     32      5      1     16       110.0           110.1           0.000    
     33      4      1     17       110.0           110.1           0.000    
     34      5      1     17       110.0           110.1           0.000    
     35      4     17     17       109.8           110.1           0.000    
     36      5     17     17       109.8           110.1           0.000    
     37      4     18     17       109.8           110.1           0.000    
     38      5     18     17       109.8           110.1           0.000    
     39      4     18     16       109.8           110.1           0.000    
     40      5     18     16       109.8           110.1           0.000    
     41      4     19     16       109.8           110.1           0.000    
     42      5     19     16       109.8           110.1           0.000    
     43      4     19     15       109.8           110.1           0.000    
     44      5     19     15       109.8           110.1           0.000    
     45      4     20     15       109.8           110.1           0.000    
     46      5     20     15       109.8           110.1           0.000    
     47      4     20     14       109.8           110.1           0.000    
     48      5     20     14       109.8           110.1           0.000    
     49      4     20     13       109.8           110.1           0.000    
     50      5     20     13       109.8           110.1           0.000    
     51      4     20     12       109.8           110.1           0.000    
     52      5     20     12       109.8           110.1           0.000    
     53      4     20     11       109.8           110.1           0.000    
     54      5     20     11       109.8           110.1           0.000    
     55      4     21     11       109.8           110.1           0.000    
     56      5     21     11       109.8           110.1           0.000    
     57      4     21     10       109.8           110.1           0.000    
     58      5     21     10       109.8           110.1           0.000    
     59      4     21      9       109.8           110.1           0.000    
     60      5     21      9       109.8           110.1           0.000    
     61      4     21      8       109.8           110.1           0.000    
     62      5     21      8       109.8           110.1           0.000    
     63      4     21      7       109.8           110.1           0.000    
     64      5     21      7       109.8           110.1           0.000    
     65      4     21      6       109.8           110.1           0.000    
     66      5     21      6       109.8           110.1           0.000    
     67      4     21      5       109.8           110.1           0.000    
     68      5     21      5       109.8           110.1           0.000    
     69      4     22      5       109.8           110.1           0.000    
     70      5     22      5       109.8           110.1           0.000    
     71      4     22      4       109.8           110.1           0.000    
     72      5     22      4       109.8           110.1           0.000    
     73      4     22      3       109.8           110.1           0.000    
     74      5     22      3       109.8           110.1           0.000    
     75      4     22      2       109.8           110.1           0.000    
     76      5     22      2       109.8           110.1           0.000    
     77      4     22      1       109.8           110.1           0.000    
     78      5     22      1       109.8           110.1           0.000    


     78 TIME-VARIANT SPECIFIED-HEAD CELLS

 SOLVING FOR HEAD 


     4 CALLS TO PCG ROUTINE FOR TIME STEP   1 IN STRESS PERIOD  122
    61 TOTAL ITERATIONS

 MAXIMUM HEAD CHANGE FOR EACH ITERATION (1 INDICATES THE FIRST INNER ITERATION):

    HEAD CHANGE    HEAD CHANGE    HEAD CHANGE    HEAD CHANGE    HEAD CHANGE 
   LAYER,ROW,COL  LAYER,ROW,COL  LAYER,ROW,COL  LAYER,ROW,COL  LAYER,ROW,COL
 ---------------------------------------------------------------------------
  1  0.3048      0 -0.2023      0  0.1761      0  0.1379      0  0.1905    
   (  5, 21,  2)  (  5, 17,  1)  (  5, 16,  2)  (  5, 17,  1)  (  5, 19,  1)
  0  0.1123      0 -0.9789E-01  0 -0.7273E-01  0  0.6444E-01  0 -0.3764E-01
   (  5, 20,  1)  (  5, 18,  1)  (  5, 19,  1)  (  5, 18,  1)  (  5, 18,  4)
  0  0.3104E-01  0 -0.2709E-01  0  0.1618E-01  0  0.1383E-01  0  0.8948E-02
   (  5, 17,  3)  (  5, 16,  3)  (  5, 15,  1)  (  5, 12,  5)  (  5, 19,  3)
  0 -0.8817E-02  0  0.4231E-02  0 -0.4938E-02  0 -0.5259E-02  0  0.1800E-02
   (  5, 18,  2)  (  5, 18,  1)  (  5, 16,  1)  (  5, 19,  3)  (  5, 18,  2)
  0 -0.1525E-02  0  0.1205E-02  0 -0.1274E-02  0  0.1231E-02  0  0.5955E-03
   (  5, 17,  2)  (  5, 16,  2)  (  5, 19,  1)  (  5, 19,  2)  (  5, 18,  5)
  0  0.4409E-03  0  0.2593E-03  0  0.2299E-03  0 -0.1315E-03  0 -0.1208E-03
   (  5, 20,  3)  (  5, 14,  2)  (  5, 19,  2)  (  5, 18,  1)  (  5,  6,  1)
  1  0.3076E-03  0 -0.4223E-03  0  0.3859E-03  0 -0.2614E-03  0  0.1635E-03
   (  5, 14,  1)  (  5, 17,  2)  (  5, 17,  2)  (  5,  6,  1)  (  5, 19,  1)
  0  0.1409E-03  0 -0.9105E-04  0 -0.4390E-04  0  0.3710E-04  0  0.2677E-04
   (  5,  6,  1)  (  5,  8,  1)  (  5, 19,  2)  (  5, 20,  2)  (  5, 17,  1)
  0 -0.2416E-04  0  0.1988E-04  0  0.1500E-04  0 -0.1635E-04  0  0.1048E-04
   (  5, 16,  1)  (  5, 14,  1)  (  5, 19,  2)  (  5, 17,  4)  (  5, 20,  1)
  0  0.7913E-05  0 -0.6228E-05  0 -0.4965E-05  0  0.4515E-05  0 -0.3255E-05
   (  5, 18,  2)  (  5, 18,  1)  (  5, 18,  4)  (  5, 17,  3)  (  5, 16,  1)
  0  0.2571E-05  0 -0.1643E-05  0  0.1255E-05  0 -0.6923E-06  1 -0.1223E-05
   (  5, 19,  3)  (  5, 19,  4)  (  5, 12,  6)  (  5, 13,  6)  (  5, 16,  5)
  0  0.1527E-05  0 -0.1267E-05  0  0.1217E-05  0  0.1020E-05  0  0.4948E-06
   (  5, 18,  1)  (  5, 16,  2)  (  5, 15,  1)  (  5, 20,  1)  (  5, 14,  3)
  1  0.4004E-06
   (  5, 18,  1)

 MAXIMUM RESIDUAL FOR EACH ITERATION (1 INDICATES THE FIRST INNER ITERATION):

    RESIDUAL       RESIDUAL       RESIDUAL       RESIDUAL       RESIDUAL    
   LAYER,ROW,COL  LAYER,ROW,COL  LAYER,ROW,COL  LAYER,ROW,COL  LAYER,ROW,COL
 ---------------------------------------------------------------------------
  1 -0.8997E-02  0 -0.8119E-02  0 -0.7311E-02  0 -0.6219E-02  0 -0.4959E-02
   (  3, 17, 17)  (  3, 17, 17)  (  3, 17, 17)  (  3, 17, 17)  (  3, 17, 17)
  0 -0.3720E-02  0 -0.2496E-02  0 -0.1515E-02  0 -0.9039E-03  0 -0.5755E-03
   (  3, 17, 17)  (  3, 17, 17)  (  3, 17, 17)  (  3, 20, 11)  (  3, 20, 11)
  0 -0.3835E-03  0 -0.3254E-03  0 -0.3014E-03  0 -0.2423E-03  0 -0.1901E-03
   (  4, 16, 17)  (  4, 16, 17)  (  4, 16, 17)  (  4, 16, 17)  (  4, 16, 17)
  0 -0.1415E-03  0 -0.1284E-03  0 -0.9635E-04  0 -0.6878E-04  0 -0.4728E-04
   (  4, 16, 17)  (  4, 16, 17)  (  4, 16, 17)  (  4, 16, 17)  (  4, 16, 17)
  0 -0.3424E-04  0 -0.3132E-04  0 -0.2619E-04  0 -0.1935E-04  0 -0.1200E-04
   (  4, 16, 17)  (  4, 16, 17)  (  4, 16, 17)  (  4, 16, 17)  (  4, 16, 17)
  0  0.7325E-05  0  0.3957E-05  0  0.2059E-05  0  0.1734E-05  0 -0.1265E-05
   (  3, 21,  6)  (  3, 21,  6)  (  3, 21,  6)  (  3, 21,  6)  (  3, 17, 17)
  1 -0.2668E-05  0  0.2498E-05  0 -0.1629E-05  0 -0.1268E-05  0 -0.1162E-05
   (  3, 17, 17)  (  5,  6,  1)  (  3, 17, 17)  (  3, 17, 17)  (  3, 17, 17)
  0 -0.8526E-06  0 -0.5991E-06  0 -0.5086E-06  0 -0.4050E-06  0 -0.3386E-06
   (  3, 17, 17)  (  3, 17, 17)  (  3, 17, 17)  (  3, 17, 17)  (  3, 17, 17)
  0 -0.3023E-06  0 -0.2311E-06  0 -0.1794E-06  0 -0.1345E-06  0 -0.9103E-07
   (  3, 17, 17)  (  3, 17, 17)  (  3, 17, 17)  (  3, 17, 17)  (  3, 17, 17)
  0 -0.6924E-07  0 -0.5902E-07  0 -0.4494E-07  0 -0.3448E-07  0 -0.3053E-07
   (  3, 17, 17)  (  3, 17, 17)  (  3, 17, 17)  (  3, 17, 17)  (  3, 17, 17)
  0 -0.2164E-07  0 -0.1525E-07  0 -0.1127E-07  0 -0.7940E-08  1  0.6988E-08
   (  3, 17, 17)  (  3, 17, 17)  (  3, 17, 17)  (  3, 17, 17)  (  3, 20,  7)
  0  0.5528E-08  0  0.4419E-08  0 -0.3616E-08  0  0.2613E-08  0 -0.2172E-08
   (  3, 18, 15)  (  3, 18, 15)  (  5, 20,  1)  (  4,  5, 17)  (  4, 16, 17)
  1 -0.2089E-08
   (  4, 16, 17)



 OUTPUT CONTROL FOR STRESS PERIOD  122   TIME STEP    1
    SAVE HEAD FOR ALL LAYERS
    SAVE DRAWDOWN FOR ALL LAYERS
    SAVE BUDGET
    PRINT BUDGET
 UBDSV1 SAVING "         STORAGE" ON UNIT   9 AT TIME STEP  1, STRESS PERIOD 122
 UBDSV2 SAVING "   CONSTANT HEAD" ON UNIT   9 AT TIME STEP  1, STRESS PERIOD 122
 UBDSV1 SAVING "FLOW RIGHT FACE " ON UNIT   9 AT TIME STEP  1, STRESS PERIOD 122
 UBDSV1 SAVING "FLOW FRONT FACE " ON UNIT   9 AT TIME STEP  1, STRESS PERIOD 122
 UBDSV1 SAVING "FLOW LOWER FACE " ON UNIT   9 AT TIME STEP  1, STRESS PERIOD 122
 UBDSV3 SAVING "        RECHARGE" ON UNIT   9 AT TIME STEP  1, STRESS PERIOD 122

 HEAD WILL BE SAVED ON UNIT   37 AT END OF TIME STEP    1, STRESS PERIOD  122

 DRAWDOWN WILL BE SAVED ON UNIT   38 AT END OF TIME STEP    1, STRESS PERIOD  122
1
  VOLUMETRIC BUDGET FOR ENTIRE MODEL AT END OF TIME STEP    1, STRESS PERIOD 122
  ------------------------------------------------------------------------------

     CUMULATIVE VOLUMES      L**3       RATES FOR THIS TIME STEP      L**3/T
     ------------------                 ------------------------

           IN:                                      IN:
           ---                                      ---
             STORAGE =       17287.5059               STORAGE =           0.0000
       CONSTANT HEAD =       30816.0957         CONSTANT HEAD =       2.9159E-03
            RECHARGE =        1436.6799              RECHARGE =       9.7813E-05

            TOTAL IN =       49540.2812              TOTAL IN =       3.0137E-03

          OUT:                                     OUT:
          ----                                     ----
             STORAGE =       14373.2324               STORAGE =       2.9415E-03
       CONSTANT HEAD =       35168.4297         CONSTANT HEAD =       7.2344E-05
            RECHARGE =           0.0000              RECHARGE =           0.0000

           TOTAL OUT =       49541.6641             TOTAL OUT =       3.0138E-03

            IN - OUT =          -1.3828              IN - OUT =      -8.4052E-08

 PERCENT DISCREPANCY =          -0.00     PERCENT DISCREPANCY =          -0.00






         TIME SUMMARY AT END OF TIME STEP    1 IN STRESS PERIOD  122
                    SECONDS     MINUTES      HOURS       DAYS        YEARS
                    -----------------------------------------------------------
   TIME STEP LENGTH  86400.      1440.0      24.000      1.0000     2.73785E-03
 STRESS PERIOD TIME  86400.      1440.0      24.000      1.0000     2.73785E-03
         TOTAL TIME 1.46880E+07 2.44800E+05  4080.0      170.00     0.46543    
1

 SOLVING FOR HEAD 
     4 CALLS TO PCG ROUTINE FOR TIME STEP   2 IN STRESS PERIOD  122
    63 TOTAL ITERATIONS

 MAXIMUM HEAD CHANGE FOR EACH ITERATION (1 INDICATES THE FIRST INNER ITERATION):

    HEAD CHANGE    HEAD CHANGE    HEAD CHANGE    HEAD CHANGE    HEAD CHANGE 
   LAYER,ROW,COL  LAYER,ROW,COL  LAYER,ROW,COL  LAYER,ROW,COL  LAYER,ROW,COL
 ---------------------------------------------------------------------------
  1  0.3188      0 -0.2084      0  0.1835      0  0.1438      0  0.1938    
   (  5, 21,  2)  (  5, 17,  1)  (  5, 16,  2)  (  5, 17,  1)  (  5, 19,  1)
  0  0.1147      0 -0.1000      0 -0.7369E-01  0  0.6718E-01  0 -0.3911E-01
   (  5, 20,  1)  (  5, 18,  1)  (  5, 19,  1)  (  5, 18,  1)  (  5, 18,  4)
  0  0.3248E-01  0 -0.2759E-01  0  0.1725E-01  0  0.1393E-01  0  0.8513E-02
   (  5, 17,  3)  (  5, 16,  3)  (  5, 15,  1)  (  5, 12,  5)  (  5, 19,  3)
  0  0.6459E-02  0 -0.5843E-02  0 -0.4087E-02  0 -0.5548E-02  0 -0.2111E-02
   (  5, 18,  1)  (  5, 18,  2)  (  5, 16,  1)  (  5, 19,  3)  (  5, 17,  2)
  0  0.2169E-02  0 -0.1594E-02  0  0.1394E-02  0 -0.1020E-02  0  0.5887E-03
   (  5, 16,  1)  (  5, 15,  1)  (  5, 19,  2)  (  5, 19,  1)  (  5, 18,  5)
  0  0.4334E-03  0  0.3753E-03  0  0.2153E-03  0  0.2114E-03  0 -0.1414E-03
   (  5, 20,  3)  (  5, 14,  2)  (  5, 18,  1)  (  5,  6,  1)  (  5,  6,  1)
  1 -0.5045E-03  0  0.7696E-03  0  0.5578E-03  0 -0.4121E-03  0  0.1980E-03
   (  5, 15,  1)  (  5, 18,  3)  (  5, 20,  1)  (  5,  6,  1)  (  5, 19,  2)
  0  0.1569E-03  0 -0.1122E-03  0 -0.7245E-04  0  0.6169E-04  0 -0.5326E-04
   (  5,  6,  1)  (  5, 14,  4)  (  5,  6,  1)  (  5, 16,  4)  (  5, 17,  5)
  0 -0.3841E-04  0  0.2036E-04  0 -0.2940E-04  0 -0.1665E-04  0 -0.1530E-04
   (  5, 16,  1)  (  5, 14,  1)  (  5, 16,  3)  (  5, 14,  1)  (  5, 16,  2)
  0 -0.1674E-04  0  0.8338E-05  0 -0.5783E-05  0  0.5107E-05  0 -0.3206E-05
   (  5, 19,  3)  (  5, 18,  2)  (  5, 18,  1)  (  5, 15,  5)  (  5, 12,  6)
  0  0.2505E-05  0 -0.2164E-05  0  0.1727E-05  0 -0.1319E-05  0  0.1142E-05
   (  5, 15,  2)  (  5, 16,  1)  (  5, 17,  5)  (  5, 18,  1)  (  5, 19,  1)
  0 -0.9209E-06  1  0.1874E-05  0  0.1788E-05  0 -0.2009E-05  0  0.1465E-05
   (  5, 20,  1)  (  5, 20,  2)  (  5, 16,  3)  (  5, 15,  1)  (  5, 19,  1)
  0 -0.1074E-05  0 -0.5115E-06  1  0.4722E-06
   (  5, 15,  4)  (  5, 17,  1)  (  5, 18,  1)

 MAXIMUM RESIDUAL FOR EACH ITERATION (1 INDICATES THE FIRST INNER ITERATION):

    RESIDUAL       RESIDUAL       RESIDUAL       RESIDUAL       RESIDUAL    
   LAYER,ROW,COL  LAYER,ROW,COL  LAYER,ROW,COL  LAYER,ROW,COL  LAYER,ROW,COL
 ---------------------------------------------------------------------------
  1 -0.8979E-02  0 -0.8103E-02  0 -0.7296E-02  0 -0.6230E-02  0 -0.5002E-02
   (  3, 17, 17)  (  3, 17, 17)  (  3, 17, 17)  (  3, 17, 17)  (  3, 17, 17)
  0 -0.3786E-02  0 -0.2555E-02  0 -0.1543E-02  0 -0.9078E-03  0 -0.5731E-03
   (  3, 17, 17)  (  3, 17, 17)  (  3, 17, 17)  (  3, 20, 11)  (  3, 20, 11)
  0 -0.3766E-03  0 -0.3215E-03  0 -0.2955E-03  0 -0.2378E-03  0 -0.1875E-03
   (  4, 16, 17)  (  4, 16, 17)  (  4, 16, 17)  (  4, 16, 17)  (  4, 16, 17)
  0 -0.1465E-03  0 -0.1293E-03  0 -0.9597E-04  0 -0.6906E-04  0 -0.4746E-04
   (  4, 16, 17)  (  4, 16, 17)  (  4, 16, 17)  (  4, 16, 17)  (  4, 16, 17)
  0 -0.3789E-04  0 -0.3182E-04  0 -0.2518E-04  0 -0.1914E-04  0  0.1232E-04
   (  4, 16, 17)  (  4, 16, 17)  (  4, 16, 17)  (  4, 16, 17)  (  3, 21,  6)
  0  0.7643E-05  0  0.4515E-05  0  0.3806E-05  0  0.1887E-05  0 -0.1238E-05
   (  3, 21,  6)  (  3, 21,  6)  (  3, 21,  6)  (  3, 21,  6)  (  3, 17, 17)
  1 -0.2809E-05  0  0.2946E-05  0  0.1995E-05  0 -0.1598E-05  0 -0.1487E-05
   (  3, 17, 17)  (  5,  6,  1)  (  5,  6,  1)  (  3, 17, 17)  (  3, 17, 17)
  0 -0.1138E-05  0 -0.1007E-05  0 -0.7667E-06  0 -0.6463E-06  0 -0.4770E-06
   (  3, 17, 17)  (  3, 17, 17)  (  3, 17, 17)  (  3, 17, 17)  (  3, 17, 17)
  0 -0.3653E-06  0 -0.3389E-06  0 -0.2579E-06  0 -0.1732E-06  0 -0.1122E-06
   (  3, 17, 17)  (  3, 17, 17)  (  3, 17, 17)  (  3, 17, 17)  (  3, 17, 17)
  0 -0.8318E-07  0 -0.6411E-07  0 -0.5480E-07  0 -0.4055E-07  0 -0.2989E-07
   (  4, 18, 14)  (  4, 18, 14)  (  4, 18, 14)  (  3, 17, 17)  (  3, 17, 17)
  0 -0.2662E-07  0 -0.2121E-07  0 -0.1599E-07  0 -0.1268E-07  0 -0.1052E-07
   (  3, 17, 17)  (  3, 17, 17)  (  3, 17, 17)  (  3, 17, 17)  (  3, 17, 17)
  0 -0.7173E-08  1  0.7909E-08  0  0.6166E-08  0 -0.4838E-08  0  0.3803E-08
   (  3, 17, 17)  (  3, 18, 15)  (  3, 18, 15)  (  5, 19,  1)  (  3, 19, 14)
  0  0.2665E-08  0  0.2171E-08  1  0.2037E-08
   (  3, 19, 14)  (  3, 19, 14)  (  3, 19, 14)



 OUTPUT CONTROL FOR STRESS PERIOD  122   TIME STEP    2
    SAVE HEAD FOR ALL LAYERS
    SAVE DRAWDOWN FOR ALL LAYERS
    SAVE BUDGET
    PRINT BUDGET
 UBDSV1 SAVING "         STORAGE" ON UNIT   9 AT TIME STEP  2, STRESS PERIOD 122
 UBDSV2 SAVING "   CONSTANT HEAD" ON UNIT   9 AT TIME STEP  2, STRESS PERIOD 122
 UBDSV1 SAVING "FLOW RIGHT FACE " ON UNIT   9 AT TIME STEP  2, STRESS PERIOD 122
 UBDSV1 SAVING "FLOW FRONT FACE " ON UNIT   9 AT TIME STEP  2, STRESS PERIOD 122
 UBDSV1 SAVING "FLOW LOWER FACE " ON UNIT   9 AT TIME STEP  2, STRESS PERIOD 122
 UBDSV3 SAVING "        RECHARGE" ON UNIT   9 AT TIME STEP  2, STRESS PERIOD 122

 HEAD WILL BE SAVED ON UNIT   37 AT END OF TIME STEP    2, STRESS PERIOD  122

 DRAWDOWN WILL BE SAVED ON UNIT   38 AT END OF TIME STEP    2, STRESS PERIOD  122
1
  VOLUMETRIC BUDGET FOR ENTIRE MODEL AT END OF TIME STEP    2, STRESS PERIOD 122
  ------------------------------------------------------------------------------

     CUMULATIVE VOLUMES      L**3       RATES FOR THIS TIME STEP      L**3/T
     ------------------                 ------------------------

           IN:                                      IN:
           ---                                      ---
             STORAGE =       17287.5059               STORAGE =           0.0000
       CONSTANT HEAD =       31148.8301         CONSTANT HEAD =       3.8511E-03
            RECHARGE =        1445.1310              RECHARGE =       9.7813E-05

            TOTAL IN =       49881.4688              TOTAL IN =       3.9489E-03

          OUT:                                     OUT:
          ----                                     ----
             STORAGE =       14714.4238               STORAGE =       3.9490E-03
       CONSTANT HEAD =       35168.4297         CONSTANT HEAD =           0.0000
            RECHARGE =           0.0000              RECHARGE =           0.0000

           TOTAL OUT =       49882.8516             TOTAL OUT =       3.9490E-03

            IN - OUT =          -1.3828              IN - OUT =      -7.5903E-08

 PERCENT DISCREPANCY =          -0.00     PERCENT DISCREPANCY =          -0.00






         TIME SUMMARY AT END OF TIME STEP    2 IN STRESS PERIOD  122
                    SECONDS     MINUTES      HOURS       DAYS        YEARS
                    -----------------------------------------------------------
   TIME STEP LENGTH  86400.      1440.0      24.000      1.0000     2.73785E-03
 STRESS PERIOD TIME 1.72800E+05  2880.0      48.000      2.0000     5.47570E-03
         TOTAL TIME 1.47744E+07 2.46240E+05  4104.0      171.00     0.46817    
1
1
                            STRESS PERIOD NO.  123, LENGTH =   86400.00    
                            -----------------------------------------------

                              NUMBER OF TIME STEPS =     1

                               MULTIPLIER FOR DELT =     1.000

                            INITIAL TIME STEP SIZE =   86400.00    

 REUSING RECH FROM LAST STRESS PERIOD

 CHD NO.   LAYER   ROW   COL    START HEAD        END HEAD         IFACE           
 ----------------------------------------------------------------------------------
      1      4      1      1       110.1           110.1           0.000    
      2      5      1      1       110.1           110.1           0.000    
      3      4      1      2       110.1           110.1           0.000    
      4      5      1      2       110.1           110.1           0.000    
      5      4      1      3       110.1           110.1           0.000    
      6      5      1      3       110.1           110.1           0.000    
      7      4      1      4       110.1           110.1           0.000    
      8      5      1      4       110.1           110.1           0.000    
      9      4      1      5       110.1           110.1           0.000    
     10      5      1      5       110.1           110.1           0.000    
     11      4      1      6       110.1           110.1           0.000    
     12      5      1      6       110.1           110.1           0.000    
     13      4      1      7       110.1           110.1           0.000    
     14      5      1      7       110.1           110.1           0.000    
     15      4      1      8       110.1           110.1           0.000    
     16      5      1      8       110.1           110.1           0.000    
     17      4      1      9       110.1           110.1           0.000    
     18      5      1      9       110.1           110.1           0.000    
     19      4      1     10       110.1           110.1           0.000    
     20      5      1     10       110.1           110.1           0.000    
     21      4      1     11       110.1           110.1           0.000    
     22      5      1     11       110.1           110.1           0.000    
     23      4      1     12       110.1           110.1           0.000    
     24      5      1     12       110.1           110.1           0.000    
     25      4      1     13       110.1           110.1           0.000    
     26      5      1     13       110.1           110.1           0.000    
     27      4      1     14       110.1           110.1           0.000    
     28      5      1     14       110.1           110.1           0.000    
     29      4      1     15       110.1           110.1           0.000    
     30      5      1     15       110.1           110.1           0.000    
     31      4      1     16       110.1           110.1           0.000    
     32      5      1     16       110.1           110.1           0.000    
     33      4      1     17       110.1           110.1           0.000    
     34      5      1     17       110.1           110.1           0.000    
     35      4     17     17       110.1           110.2           0.000    
     36      5     17     17       110.1           110.2           0.000    
     37      4     18     17       110.1           110.2           0.000    
     38      5     18     17       110.1           110.2           0.000    
     39      4     18     16       110.1           110.2           0.000    
     40      5     18     16       110.1           110.2           0.000    
     41      4     19     16       110.1           110.2           0.000    
     42      5     19     16       110.1           110.2           0.000    
     43      4     19     15       110.1           110.2           0.000    
     44      5     19     15       110.1           110.2           0.000    
     45      4     20     15       110.1           110.2           0.000    
     46      5     20     15       110.1           110.2           0.000    
     47      4     20     14       110.1           110.2           0.000    
     48      5     20     14       110.1           110.2           0.000    
     49      4     20     13       110.1           110.2           0.000    
     50      5     20     13       110.1           110.2           0.000    
     51      4     20     12       110.1           110.2           0.000    
     52      5     20     12       110.1           110.2           0.000    
     53      4     20     11       110.1           110.2           0.000    
     54      5     20     11       110.1           110.2           0.000    
     55      4     21     11       110.1           110.2           0.000    
     56      5     21     11       110.1           110.2           0.000    
     57      4     21     10       110.1           110.2           0.000    
     58      5     21     10       110.1           110.2           0.000    
     59      4     21      9       110.1           110.2           0.000    
     60      5     21      9       110.1           110.2           0.000    
     61      4     21      8       110.1           110.2           0.000    
     62      5     21      8       110.1           110.2           0.000    
     63      4     21      7       110.1           110.2           0.000    
     64      5     21      7       110.1           110.2           0.000    
     65      4     21      6       110.1           110.1           0.000    
     66      5     21      6       110.1           110.1           0.000    
     67      4     21      5       110.1           110.1           0.000    
     68      5     21      5       110.1           110.1           0.000    
     69      4     22      5       110.1           110.1           0.000    
     70      5     22      5       110.1           110.1           0.000    
     71      4     22      4       110.1           110.1           0.000    
     72      5     22      4       110.1           110.1           0.000    
     73      4     22      3       110.1           110.1           0.000    
     74      5     22      3       110.1           110.1           0.000    
     75      4     22      2       110.1           110.1           0.000    
     76      5     22      2       110.1           110.1           0.000    
     77      4     22      1       110.1           110.1           0.000    
     78      5     22      1       110.1           110.1           0.000    


     78 TIME-VARIANT SPECIFIED-HEAD CELLS

 SOLVING FOR HEAD 


     3 CALLS TO PCG ROUTINE FOR TIME STEP   1 IN STRESS PERIOD  123
    53 TOTAL ITERATIONS

 MAXIMUM HEAD CHANGE FOR EACH ITERATION (1 INDICATES THE FIRST INNER ITERATION):

    HEAD CHANGE    HEAD CHANGE    HEAD CHANGE    HEAD CHANGE    HEAD CHANGE 
   LAYER,ROW,COL  LAYER,ROW,COL  LAYER,ROW,COL  LAYER,ROW,COL  LAYER,ROW,COL
 ---------------------------------------------------------------------------
  1  0.1711      0 -0.1099      0  0.9729E-01  0  0.7577E-01  0  0.9851E-01
   (  5, 21,  2)  (  5, 17,  1)  (  5, 16,  2)  (  5, 17,  1)  (  5, 19,  1)
  0  0.5973E-01  0 -0.5160E-01  0  0.3791E-01  0  0.3491E-01  0 -0.1993E-01
   (  5, 20,  1)  (  5, 18,  1)  (  5, 17,  1)  (  5, 18,  1)  (  5, 18,  4)
  0  0.1737E-01  0 -0.1115E-01  0  0.9704E-02  0  0.6884E-02  0 -0.4040E-02
   (  5, 17,  3)  (  5, 16,  2)  (  5, 14,  1)  (  5, 12,  5)  (  5, 19,  1)
  0  0.3602E-02  0 -0.4279E-02  0 -0.2232E-02  0 -0.2777E-02  0 -0.1040E-02
   (  5, 18,  1)  (  5, 18,  2)  (  5, 16,  1)  (  5, 19,  3)  (  5, 17,  2)
  0 -0.8974E-03  0  0.7521E-03  0 -0.5588E-03  0  0.4607E-03  0  0.3276E-03
   (  5, 20,  3)  (  5, 17,  1)  (  5, 15,  1)  (  5, 16,  2)  (  5, 18,  5)
  0  0.2118E-03  0  0.1868E-03  0  0.1640E-03  0  0.1173E-03  0 -0.6960E-04
   (  5, 20,  3)  (  5, 14,  2)  (  5, 19,  1)  (  5,  6,  1)  (  5,  6,  1)
  1 -0.1990E-03  0  0.3309E-03  0 -0.2469E-03  0 -0.2190E-03  0  0.9785E-04
   (  5, 16,  1)  (  5, 14,  1)  (  5, 20,  1)  (  5,  6,  1)  (  5, 19,  1)
  0  0.7374E-04  0 -0.6138E-04  0  0.4145E-04  0  0.2205E-04  0 -0.2363E-04
   (  5,  6,  1)  (  5, 14,  4)  (  5, 19,  1)  (  5, 16,  4)  (  5, 17,  5)
  0  0.1410E-04  0 -0.1634E-04  0 -0.9334E-05  0 -0.8735E-05  0 -0.5952E-05
   (  5, 18,  4)  (  5, 16,  1)  (  5, 16,  3)  (  5, 14,  1)  (  5, 17,  2)
  0 -0.4586E-05  0 -0.4616E-05  0  0.2172E-05  0 -0.3153E-05  0  0.1826E-05
   (  5, 16,  2)  (  5, 19,  3)  (  5, 19,  1)  (  5, 20,  1)  (  5, 16,  1)
  0 -0.1383E-05  0  0.9191E-06  1 -0.8021E-06
   (  5, 17,  2)  (  5, 15,  3)  (  5, 19,  3)

 MAXIMUM RESIDUAL FOR EACH ITERATION (1 INDICATES THE FIRST INNER ITERATION):

    RESIDUAL       RESIDUAL       RESIDUAL       RESIDUAL       RESIDUAL    
   LAYER,ROW,COL  LAYER,ROW,COL  LAYER,ROW,COL  LAYER,ROW,COL  LAYER,ROW,COL
 ---------------------------------------------------------------------------
  1 -0.4193E-02  0 -0.3765E-02  0 -0.3375E-02  0 -0.2882E-02  0 -0.2316E-02
   (  3, 17, 17)  (  3, 17, 17)  (  3, 17, 17)  (  3, 17, 17)  (  3, 17, 17)
  0 -0.1748E-02  0 -0.1162E-02  0 -0.6799E-03  0 -0.3840E-03  0 -0.2357E-03
   (  3, 17, 17)  (  3, 17, 17)  (  3, 17, 17)  (  3, 20, 11)  (  3, 20, 11)
  0  0.1750E-03  0  0.1612E-03  0 -0.1337E-03  0 -0.1072E-03  0 -0.8499E-04
   (  4, 21,  2)  (  4, 21,  2)  (  4, 16, 17)  (  4, 16, 17)  (  4, 16, 17)
  0 -0.7411E-04  0 -0.5847E-04  0 -0.4292E-04  0 -0.3069E-04  0 -0.2067E-04
   (  4, 16, 17)  (  4, 16, 17)  (  4, 16, 17)  (  4, 16, 17)  (  4, 16, 17)
  0  0.1616E-04  0  0.1458E-04  0  0.1304E-04  0  0.9604E-05  0  0.6216E-05
   (  3, 21,  6)  (  3, 21,  6)  (  3, 21,  6)  (  3, 21,  6)  (  3, 21,  6)
  0  0.3844E-05  0  0.2790E-05  0  0.1904E-05  0  0.8944E-06  0 -0.5939E-06
   (  3, 21,  6)  (  3, 21,  6)  (  3, 21,  6)  (  3, 21,  6)  (  5, 15, 17)
  1  0.9730E-06  0  0.1381E-05  0  0.9940E-06  0 -0.5606E-06  0 -0.5462E-06
   (  2, 17, 17)  (  5,  6,  1)  (  5,  6,  1)  (  3, 17, 17)  (  5,  6,  1)
  0 -0.4234E-06  0 -0.3522E-06  0 -0.2870E-06  0 -0.2349E-06  0 -0.1783E-06
   (  3, 17, 17)  (  3, 17, 17)  (  3, 17, 17)  (  3, 17, 17)  (  3, 17, 17)
  0 -0.1479E-06  0 -0.1283E-06  0 -0.9698E-07  0 -0.6619E-07  0 -0.4770E-07
   (  3, 17, 17)  (  3, 17, 17)  (  3, 17, 17)  (  3, 17, 17)  (  3, 17, 17)
  0 -0.3734E-07  0 -0.2796E-07  0 -0.2510E-07  0 -0.1663E-07  0 -0.1299E-07
   (  4, 18, 14)  (  4, 18, 14)  (  4, 18, 14)  (  4, 18, 14)  (  3, 17, 17)
  0 -0.1139E-07  0 -0.8556E-08  1 -0.8041E-08
   (  3, 17, 17)  (  3, 17, 17)  (  3, 17, 17)



 OUTPUT CONTROL FOR STRESS PERIOD  123   TIME STEP    1
    SAVE HEAD FOR ALL LAYERS
    SAVE DRAWDOWN FOR ALL LAYERS
    SAVE BUDGET
    PRINT BUDGET
 UBDSV1 SAVING "         STORAGE" ON UNIT   9 AT TIME STEP  1, STRESS PERIOD 123
 UBDSV2 SAVING "   CONSTANT HEAD" ON UNIT   9 AT TIME STEP  1, STRESS PERIOD 123
 UBDSV1 SAVING "FLOW RIGHT FACE " ON UNIT   9 AT TIME STEP  1, STRESS PERIOD 123
 UBDSV1 SAVING "FLOW FRONT FACE " ON UNIT   9 AT TIME STEP  1, STRESS PERIOD 123
 UBDSV1 SAVING "FLOW LOWER FACE " ON UNIT   9 AT TIME STEP  1, STRESS PERIOD 123
 UBDSV3 SAVING "        RECHARGE" ON UNIT   9 AT TIME STEP  1, STRESS PERIOD 123

 HEAD WILL BE SAVED ON UNIT   37 AT END OF TIME STEP    1, STRESS PERIOD  123

 DRAWDOWN WILL BE SAVED ON UNIT   38 AT END OF TIME STEP    1, STRESS PERIOD  123
1
  VOLUMETRIC BUDGET FOR ENTIRE MODEL AT END OF TIME STEP    1, STRESS PERIOD 123
  ------------------------------------------------------------------------------

     CUMULATIVE VOLUMES      L**3       RATES FOR THIS TIME STEP      L**3/T
     ------------------                 ------------------------

           IN:                                      IN:
           ---                                      ---
             STORAGE =       17287.5059               STORAGE =           0.0000
       CONSTANT HEAD =       31396.8145         CONSTANT HEAD =       2.8702E-03
            RECHARGE =        1453.5820              RECHARGE =       9.7813E-05

            TOTAL IN =       50137.9023              TOTAL IN =       2.9680E-03

          OUT:                                     OUT:
          ----                                     ----
             STORAGE =       14970.8682               STORAGE =       2.9681E-03
       CONSTANT HEAD =       35168.4297         CONSTANT HEAD =           0.0000
            RECHARGE =           0.0000              RECHARGE =           0.0000

           TOTAL OUT =       50139.2969             TOTAL OUT =       2.9681E-03

            IN - OUT =          -1.3945              IN - OUT =      -9.7789E-08

 PERCENT DISCREPANCY =          -0.00     PERCENT DISCREPANCY =          -0.00






         TIME SUMMARY AT END OF TIME STEP    1 IN STRESS PERIOD  123
                    SECONDS     MINUTES      HOURS       DAYS        YEARS
                    -----------------------------------------------------------
   TIME STEP LENGTH  86400.      1440.0      24.000      1.0000     2.73785E-03
 STRESS PERIOD TIME  86400.      1440.0      24.000      1.0000     2.73785E-03
         TOTAL TIME 1.48608E+07 2.47680E+05  4128.0      172.00     0.47091    
1
1
                            STRESS PERIOD NO.  124, LENGTH =   259200.0    
                            -----------------------------------------------

                              NUMBER OF TIME STEPS =     3

                               MULTIPLIER FOR DELT =     1.000

                            INITIAL TIME STEP SIZE =   86400.00    

 REUSING RECH FROM LAST STRESS PERIOD

 CHD NO.   LAYER   ROW   COL    START HEAD        END HEAD         IFACE           
 ----------------------------------------------------------------------------------
      1      4      1      1       110.1           110.1           0.000    
      2      5      1      1       110.1           110.1           0.000    
      3      4      1      2       110.1           110.1           0.000    
      4      5      1      2       110.1           110.1           0.000    
      5      4      1      3       110.1           110.1           0.000    
      6      5      1      3       110.1           110.1           0.000    
      7      4      1      4       110.1           110.1           0.000    
      8      5      1      4       110.1           110.1           0.000    
      9      4      1      5       110.1           110.1           0.000    
     10      5      1      5       110.1           110.1           0.000    
     11      4      1      6       110.1           110.1           0.000    
     12      5      1      6       110.1           110.1           0.000    
     13      4      1      7       110.1           110.1           0.000    
     14      5      1      7       110.1           110.1           0.000    
     15      4      1      8       110.1           110.1           0.000    
     16      5      1      8       110.1           110.1           0.000    
     17      4      1      9       110.1           110.1           0.000    
     18      5      1      9       110.1           110.1           0.000    
     19      4      1     10       110.1           110.1           0.000    
     20      5      1     10       110.1           110.1           0.000    
     21      4      1     11       110.1           110.1           0.000    
     22      5      1     11       110.1           110.1           0.000    
     23      4      1     12       110.1           110.1           0.000    
     24      5      1     12       110.1           110.1           0.000    
     25      4      1     13       110.1           110.1           0.000    
     26      5      1     13       110.1           110.1           0.000    
     27      4      1     14       110.1           110.1           0.000    
     28      5      1     14       110.1           110.1           0.000    
     29      4      1     15       110.1           110.1           0.000    
     30      5      1     15       110.1           110.1           0.000    
     31      4      1     16       110.1           110.1           0.000    
     32      5      1     16       110.1           110.1           0.000    
     33      4      1     17       110.1           110.1           0.000    
     34      5      1     17       110.1           110.1           0.000    
     35      4     17     17       110.2           109.8           0.000    
     36      5     17     17       110.2           109.8           0.000    
     37      4     18     17       110.2           109.8           0.000    
     38      5     18     17       110.2           109.8           0.000    
     39      4     18     16       110.2           109.8           0.000    
     40      5     18     16       110.2           109.8           0.000    
     41      4     19     16       110.2           109.8           0.000    
     42      5     19     16       110.2           109.8           0.000    
     43      4     19     15       110.2           109.8           0.000    
     44      5     19     15       110.2           109.8           0.000    
     45      4     20     15       110.2           109.8           0.000    
     46      5     20     15       110.2           109.8           0.000    
     47      4     20     14       110.2           109.8           0.000    
     48      5     20     14       110.2           109.8           0.000    
     49      4     20     13       110.2           109.8           0.000    
     50      5     20     13       110.2           109.8           0.000    
     51      4     20     12       110.2           109.8           0.000    
     52      5     20     12       110.2           109.8           0.000    
     53      4     20     11       110.2           109.8           0.000    
     54      5     20     11       110.2           109.8           0.000    
     55      4     21     11       110.2           109.8           0.000    
     56      5     21     11       110.2           109.8           0.000    
     57      4     21     10       110.2           109.8           0.000    
     58      5     21     10       110.2           109.8           0.000    
     59      4     21      9       110.2           109.8           0.000    
     60      5     21      9       110.2           109.8           0.000    
     61      4     21      8       110.2           109.8           0.000    
     62      5     21      8       110.2           109.8           0.000    
     63      4     21      7       110.2           109.8           0.000    
     64      5     21      7       110.2           109.8           0.000    
     65      4     21      6       110.1           109.8           0.000    
     66      5     21      6       110.1           109.8           0.000    
     67      4     21      5       110.1           109.8           0.000    
     68      5     21      5       110.1           109.8           0.000    
     69      4     22      5       110.1           109.8           0.000    
     70      5     22      5       110.1           109.8           0.000    
     71      4     22      4       110.1           109.8           0.000    
     72      5     22      4       110.1           109.8           0.000    
     73      4     22      3       110.1           109.8           0.000    
     74      5     22      3       110.1           109.8           0.000    
     75      4     22      2       110.1           109.8           0.000    
     76      5     22      2       110.1           109.8           0.000    
     77      4     22      1       110.1           109.8           0.000    
     78      5     22      1       110.1           109.8           0.000    


     78 TIME-VARIANT SPECIFIED-HEAD CELLS

 SOLVING FOR HEAD 


     3 CALLS TO PCG ROUTINE FOR TIME STEP   1 IN STRESS PERIOD  124
    53 TOTAL ITERATIONS

 MAXIMUM HEAD CHANGE FOR EACH ITERATION (1 INDICATES THE FIRST INNER ITERATION):

    HEAD CHANGE    HEAD CHANGE    HEAD CHANGE    HEAD CHANGE    HEAD CHANGE 
   LAYER,ROW,COL  LAYER,ROW,COL  LAYER,ROW,COL  LAYER,ROW,COL  LAYER,ROW,COL
 ---------------------------------------------------------------------------
  1 -0.2271      0  0.1526      0 -0.1301      0 -0.1017      0 -0.1453    
   (  5, 21,  2)  (  5, 17,  1)  (  5, 16,  2)  (  5, 17,  1)  (  5, 19,  1)
  0 -0.8313E-01  0  0.7460E-01  0  0.5544E-01  0 -0.4776E-01  0  0.2824E-01
   (  5, 20,  1)  (  5, 18,  1)  (  5, 19,  1)  (  5, 18,  1)  (  5, 18,  4)
  0 -0.2131E-01  0 -0.1349E-01  0  0.1235E-01  0 -0.1051E-01  0 -0.6356E-02
   (  5, 17,  3)  (  5, 14,  1)  (  5, 16,  2)  (  5, 12,  5)  (  5, 19,  3)
  0  0.4553E-02  0  0.3163E-02  0  0.3106E-02  0  0.4205E-02  0  0.1567E-02
   (  5, 18,  3)  (  5, 18,  2)  (  5, 16,  3)  (  5, 19,  3)  (  5, 17,  2)
  0 -0.1253E-02  0  0.1198E-02  0 -0.8843E-03  0  0.6827E-03  0 -0.4297E-03
   (  5, 16,  1)  (  5, 17,  2)  (  5, 19,  2)  (  5, 20,  1)  (  5, 18,  5)
  0 -0.3496E-03  0 -0.2108E-03  0 -0.1787E-03  0  0.2035E-03  0 -0.1113E-03
   (  5, 20,  3)  (  5, 14,  2)  (  5, 19,  2)  (  5, 18,  1)  (  5, 17,  1)
  1  0.9986E-04  0 -0.1681E-03  0  0.1586E-03  0 -0.1246E-03  0  0.1317E-03
   (  5, 16,  1)  (  5, 20,  1)  (  5, 19,  1)  (  5, 17,  2)  (  5, 18,  3)
  0  0.5707E-04  0 -0.5331E-04  0 -0.2914E-04  0 -0.2262E-04  0 -0.1665E-04
   (  5, 20,  2)  (  5, 13,  4)  (  5, 16,  5)  (  5, 12,  5)  (  5, 15,  4)
  0 -0.1111E-04  0  0.1674E-04  0 -0.9570E-05  0 -0.8986E-05  0 -0.5364E-05
   (  5, 17,  2)  (  5, 16,  4)  (  5, 20,  1)  (  5, 19,  2)  (  5, 16,  1)
  0 -0.4129E-05  0 -0.2503E-05  0  0.3455E-05  0 -0.1797E-05  0 -0.1902E-05
   (  5, 20,  1)  (  5, 19,  1)  (  5, 20,  1)  (  5, 17,  3)  (  5, 19,  3)
  0  0.1326E-05  0 -0.9858E-06  1  0.5935E-06
   (  5, 17,  2)  (  5, 17,  1)  (  5, 17,  1)

 MAXIMUM RESIDUAL FOR EACH ITERATION (1 INDICATES THE FIRST INNER ITERATION):

    RESIDUAL       RESIDUAL       RESIDUAL       RESIDUAL       RESIDUAL    
   LAYER,ROW,COL  LAYER,ROW,COL  LAYER,ROW,COL  LAYER,ROW,COL  LAYER,ROW,COL
 ---------------------------------------------------------------------------
  1  0.7002E-02  0  0.6331E-02  0  0.5717E-02  0  0.4867E-02  0  0.3872E-02
   (  3, 17, 17)  (  3, 17, 17)  (  3, 17, 17)  (  3, 17, 17)  (  3, 17, 17)
  0  0.2896E-02  0  0.1938E-02  0  0.1187E-02  0  0.7236E-03  0  0.4665E-03
   (  3, 17, 17)  (  3, 17, 17)  (  3, 17, 17)  (  3, 20, 11)  (  3, 20, 11)
  0  0.3106E-03  0  0.2559E-03  0  0.2392E-03  0  0.1938E-03  0  0.1513E-03
   (  3, 20, 11)  (  4, 16, 17)  (  4, 16, 17)  (  4, 16, 17)  (  4, 16, 17)
  0  0.1126E-03  0  0.1022E-03  0  0.7683E-04  0  0.5463E-04  0  0.3771E-04
   (  4, 16, 17)  (  4, 16, 17)  (  4, 16, 17)  (  4, 16, 17)  (  4, 16, 17)
  0  0.3077E-04  0  0.2655E-04  0  0.2266E-04  0  0.1554E-04  0  0.9652E-05
   (  4, 16, 17)  (  4, 16, 17)  (  4, 16, 17)  (  4, 16, 17)  (  4, 16, 17)
  0  0.5815E-05  0  0.3115E-05  0  0.2415E-05  0  0.1456E-05  0  0.1167E-05
   (  4, 16, 17)  (  4, 16, 17)  (  4, 16, 17)  (  4, 16, 17)  (  3, 17, 17)
  1 -0.1624E-05  0 -0.1163E-05  0 -0.9916E-06  0 -0.6979E-06  0  0.5339E-06
   (  3, 21,  5)  (  3, 21,  5)  (  3, 21,  5)  (  3, 21,  6)  (  4, 16, 17)
  0 -0.4383E-06  0 -0.3943E-06  0  0.2943E-06  0  0.2160E-06  0  0.1623E-06
   (  4, 18, 14)  (  4, 18, 14)  (  4, 20,  2)  (  4, 16, 17)  (  4, 16, 17)
  0  0.1498E-06  0  0.1187E-06  0  0.9051E-07  0  0.6645E-07  0  0.5273E-07
   (  4, 16, 17)  (  4, 16, 17)  (  4, 16, 17)  (  4, 16, 17)  (  4, 16, 17)
  0  0.4183E-07  0  0.3865E-07  0  0.2937E-07  0  0.1913E-07  0 -0.1356E-07
   (  4, 16, 17)  (  4, 16, 17)  (  4, 16, 17)  (  4, 16, 17)  (  4, 20,  2)
  0 -0.1393E-07  0 -0.1043E-07  1 -0.9389E-08
   (  4, 20,  2)  (  4, 20,  2)  (  4, 20,  2)



 OUTPUT CONTROL FOR STRESS PERIOD  124   TIME STEP    1
    SAVE HEAD FOR ALL LAYERS
    SAVE DRAWDOWN FOR ALL LAYERS
    SAVE BUDGET
    PRINT BUDGET
 UBDSV1 SAVING "         STORAGE" ON UNIT   9 AT TIME STEP  1, STRESS PERIOD 124
 UBDSV2 SAVING "   CONSTANT HEAD" ON UNIT   9 AT TIME STEP  1, STRESS PERIOD 124
 UBDSV1 SAVING "FLOW RIGHT FACE " ON UNIT   9 AT TIME STEP  1, STRESS PERIOD 124
 UBDSV1 SAVING "FLOW FRONT FACE " ON UNIT   9 AT TIME STEP  1, STRESS PERIOD 124
 UBDSV1 SAVING "FLOW LOWER FACE " ON UNIT   9 AT TIME STEP  1, STRESS PERIOD 124
 UBDSV3 SAVING "        RECHARGE" ON UNIT   9 AT TIME STEP  1, STRESS PERIOD 124

 HEAD WILL BE SAVED ON UNIT   37 AT END OF TIME STEP    1, STRESS PERIOD  124

 DRAWDOWN WILL BE SAVED ON UNIT   38 AT END OF TIME STEP    1, STRESS PERIOD  124
1
  VOLUMETRIC BUDGET FOR ENTIRE MODEL AT END OF TIME STEP    1, STRESS PERIOD 124
  ------------------------------------------------------------------------------

     CUMULATIVE VOLUMES      L**3       RATES FOR THIS TIME STEP      L**3/T
     ------------------                 ------------------------

           IN:                                      IN:
           ---                                      ---
             STORAGE =       17395.2305               STORAGE =       1.2468E-03
       CONSTANT HEAD =       31430.1406         CONSTANT HEAD =       3.8572E-04
            RECHARGE =        1462.0331              RECHARGE =       9.7813E-05

            TOTAL IN =       50287.4023              TOTAL IN =       1.7304E-03

          OUT:                                     OUT:
          ----                                     ----
             STORAGE =       14970.8682               STORAGE =           0.0000
       CONSTANT HEAD =       35317.9414         CONSTANT HEAD =       1.7305E-03
            RECHARGE =           0.0000              RECHARGE =           0.0000

           TOTAL OUT =       50288.8086             TOTAL OUT =       1.7305E-03

            IN - OUT =          -1.4062              IN - OUT =      -1.1607E-07

 PERCENT DISCREPANCY =          -0.00     PERCENT DISCREPANCY =          -0.01






         TIME SUMMARY AT END OF TIME STEP    1 IN STRESS PERIOD  124
                    SECONDS     MINUTES      HOURS       DAYS        YEARS
                    -----------------------------------------------------------
   TIME STEP LENGTH  86400.      1440.0      24.000      1.0000     2.73785E-03
 STRESS PERIOD TIME  86400.      1440.0      24.000      1.0000     2.73785E-03
         TOTAL TIME 1.49472E+07 2.49120E+05  4152.0      173.00     0.47365    
1

 SOLVING FOR HEAD 
     3 CALLS TO PCG ROUTINE FOR TIME STEP   2 IN STRESS PERIOD  124
    55 TOTAL ITERATIONS

 MAXIMUM HEAD CHANGE FOR EACH ITERATION (1 INDICATES THE FIRST INNER ITERATION):

    HEAD CHANGE    HEAD CHANGE    HEAD CHANGE    HEAD CHANGE    HEAD CHANGE 
   LAYER,ROW,COL  LAYER,ROW,COL  LAYER,ROW,COL  LAYER,ROW,COL  LAYER,ROW,COL
 ---------------------------------------------------------------------------
  1 -0.2406      0  0.1578      0 -0.1380      0 -0.1083      0 -0.1482    
   (  5, 21,  2)  (  5, 17,  1)  (  5, 16,  2)  (  5, 17,  1)  (  5, 19,  1)
  0 -0.8568E-01  0  0.7616E-01  0  0.5637E-01  0 -0.5055E-01  0  0.3010E-01
   (  5, 20,  1)  (  5, 18,  1)  (  5, 19,  1)  (  5, 18,  1)  (  5, 18,  4)
  0 -0.2636E-01  0  0.1536E-01  0 -0.1404E-01  0 -0.1077E-01  0 -0.7385E-02
   (  5, 17,  3)  (  5, 16,  2)  (  5, 14,  1)  (  5, 12,  5)  (  5, 19,  3)
  0  0.6888E-02  0 -0.4646E-02  0  0.3849E-02  0  0.4172E-02  0  0.2195E-02
   (  5, 18,  2)  (  5, 18,  1)  (  5, 16,  1)  (  5, 19,  3)  (  5, 17,  2)
  0 -0.1195E-02  0  0.1371E-02  0 -0.9725E-03  0  0.7968E-03  0 -0.4601E-03
   (  5, 16,  1)  (  5, 20,  3)  (  5, 19,  2)  (  5, 20,  1)  (  5, 18,  5)
  0 -0.3281E-03  0 -0.2018E-03  0  0.1987E-03  0 -0.1911E-03  0  0.9279E-04
   (  5, 20,  3)  (  5, 14,  2)  (  5, 18,  1)  (  5, 16,  1)  (  5, 13,  2)
  1 -0.2148E-03  0  0.3697E-03  0 -0.3143E-03  0 -0.3809E-03  0 -0.1665E-03
   (  5, 15,  3)  (  5, 14,  2)  (  5, 17,  1)  (  5,  6,  1)  (  5, 19,  1)
  0 -0.1142E-03  0 -0.9026E-04  0 -0.5628E-04  0 -0.4326E-04  0  0.2296E-04
   (  5, 17,  3)  (  5, 14,  4)  (  5, 15,  1)  (  5, 12,  5)  (  5, 12,  4)
  0  0.1973E-04  0 -0.1869E-04  0 -0.1823E-04  0 -0.1100E-04  0  0.1128E-04
   (  5, 19,  1)  (  5, 16,  2)  (  5, 20,  1)  (  5, 19,  2)  (  5, 19,  4)
  0  0.6599E-05  0  0.6068E-05  0  0.4307E-05  0  0.2547E-05  0  0.2639E-05
   (  5, 14,  4)  (  5, 18,  1)  (  5, 16,  3)  (  5, 15,  3)  (  5, 15,  1)
  0 -0.1527E-05  0  0.2180E-05  0  0.1618E-05  0 -0.8908E-06  1  0.9173E-06
   (  5, 17,  1)  (  5, 16,  2)  (  5, 18,  1)  (  5, 19,  1)  (  5, 20,  1)

 MAXIMUM RESIDUAL FOR EACH ITERATION (1 INDICATES THE FIRST INNER ITERATION):

    RESIDUAL       RESIDUAL       RESIDUAL       RESIDUAL       RESIDUAL    
   LAYER,ROW,COL  LAYER,ROW,COL  LAYER,ROW,COL  LAYER,ROW,COL  LAYER,ROW,COL
 ---------------------------------------------------------------------------
  1  0.6988E-02  0  0.6319E-02  0  0.5704E-02  0  0.4881E-02  0  0.3922E-02
   (  3, 17, 17)  (  3, 17, 17)  (  3, 17, 17)  (  3, 17, 17)  (  3, 17, 17)
  0  0.2977E-02  0  0.2016E-02  0  0.1231E-02  0  0.7363E-03  0  0.4694E-03
   (  3, 17, 17)  (  3, 17, 17)  (  3, 17, 17)  (  3, 20, 11)  (  3, 20, 11)
  0  0.3092E-03  0  0.2776E-03  0  0.2334E-03  0  0.1885E-03  0  0.1486E-03
   (  3, 20, 11)  (  4, 16, 17)  (  4, 16, 17)  (  4, 16, 17)  (  4, 16, 17)
  0  0.1235E-03  0  0.1030E-03  0  0.7625E-04  0  0.5497E-04  0  0.3891E-04
   (  4, 16, 17)  (  4, 16, 17)  (  4, 16, 17)  (  4, 16, 17)  (  4, 16, 17)
  0  0.3635E-04  0  0.2573E-04  0  0.2092E-04  0  0.1550E-04  0  0.9624E-05
   (  4, 16, 17)  (  4, 16, 17)  (  4, 16, 17)  (  4, 16, 17)  (  4, 16, 17)
  0 -0.5839E-05  0 -0.3199E-05  0 -0.2621E-05  0 -0.1634E-05  0 -0.1374E-05
   (  3, 21,  6)  (  3, 21,  6)  (  3, 21,  6)  (  3, 21,  6)  (  3, 21,  6)
  1 -0.1939E-05  0  0.2435E-05  0  0.2414E-05  0 -0.7703E-06  0 -0.7868E-06
   (  3, 21,  6)  (  5,  6,  1)  (  5,  6,  1)  (  5,  6,  1)  (  4, 18, 14)
  0 -0.7108E-06  0 -0.5877E-06  0 -0.4100E-06  0  0.3219E-06  0  0.2461E-06
   (  4, 18, 14)  (  4, 18, 14)  (  4, 18, 14)  (  4, 16, 17)  (  4, 16, 17)
  0  0.1987E-06  0  0.1787E-06  0  0.1353E-06  0  0.9505E-07  0  0.6795E-07
   (  4, 16, 17)  (  4, 16, 17)  (  4, 16, 17)  (  4, 16, 17)  (  4, 16, 17)
  0  0.5371E-07  0  0.4759E-07  0  0.3509E-07  0  0.2408E-07  0 -0.2599E-07
   (  4, 16, 17)  (  4, 16, 17)  (  4, 16, 17)  (  4, 16, 17)  (  4, 20,  2)
  0 -0.2415E-07  0 -0.1762E-07  0 -0.1261E-07  0 -0.9974E-08  1 -0.9579E-08
   (  4, 20,  2)  (  4, 20,  2)  (  4, 20,  2)  (  4, 20,  2)  (  4, 20,  2)



 OUTPUT CONTROL FOR STRESS PERIOD  124   TIME STEP    2
    SAVE HEAD FOR ALL LAYERS
    SAVE DRAWDOWN FOR ALL LAYERS
    SAVE BUDGET
    PRINT BUDGET
 UBDSV1 SAVING "         STORAGE" ON UNIT   9 AT TIME STEP  2, STRESS PERIOD 124
 UBDSV2 SAVING "   CONSTANT HEAD" ON UNIT   9 AT TIME STEP  2, STRESS PERIOD 124
 UBDSV1 SAVING "FLOW RIGHT FACE " ON UNIT   9 AT TIME STEP  2, STRESS PERIOD 124
 UBDSV1 SAVING "FLOW FRONT FACE " ON UNIT   9 AT TIME STEP  2, STRESS PERIOD 124
 UBDSV1 SAVING "FLOW LOWER FACE " ON UNIT   9 AT TIME STEP  2, STRESS PERIOD 124
 UBDSV3 SAVING "        RECHARGE" ON UNIT   9 AT TIME STEP  2, STRESS PERIOD 124

 HEAD WILL BE SAVED ON UNIT   37 AT END OF TIME STEP    2, STRESS PERIOD  124

 DRAWDOWN WILL BE SAVED ON UNIT   38 AT END OF TIME STEP    2, STRESS PERIOD  124
1
  VOLUMETRIC BUDGET FOR ENTIRE MODEL AT END OF TIME STEP    2, STRESS PERIOD 124
  ------------------------------------------------------------------------------

     CUMULATIVE VOLUMES      L**3       RATES FOR THIS TIME STEP      L**3/T
     ------------------                 ------------------------

           IN:                                      IN:
           ---                                      ---
             STORAGE =       17609.7363               STORAGE =       2.4827E-03
       CONSTANT HEAD =       31499.6211         CONSTANT HEAD =       8.0417E-04
            RECHARGE =        1470.4841              RECHARGE =       9.7813E-05

            TOTAL IN =       50579.8438              TOTAL IN =       3.3847E-03

          OUT:                                     OUT:
          ----                                     ----
             STORAGE =       14970.8682               STORAGE =           0.0000
       CONSTANT HEAD =       35610.3906         CONSTANT HEAD =       3.3848E-03
            RECHARGE =           0.0000              RECHARGE =           0.0000

           TOTAL OUT =       50581.2578             TOTAL OUT =       3.3848E-03

            IN - OUT =          -1.4141              IN - OUT =      -1.1455E-07

 PERCENT DISCREPANCY =          -0.00     PERCENT DISCREPANCY =          -0.00






         TIME SUMMARY AT END OF TIME STEP    2 IN STRESS PERIOD  124
                    SECONDS     MINUTES      HOURS       DAYS        YEARS
                    -----------------------------------------------------------
   TIME STEP LENGTH  86400.      1440.0      24.000      1.0000     2.73785E-03
 STRESS PERIOD TIME 1.72800E+05  2880.0      48.000      2.0000     5.47570E-03
         TOTAL TIME 1.50336E+07 2.50560E+05  4176.0      174.00     0.47639    
1

 SOLVING FOR HEAD 
     5 CALLS TO PCG ROUTINE FOR TIME STEP   3 IN STRESS PERIOD  124
    60 TOTAL ITERATIONS

 MAXIMUM HEAD CHANGE FOR EACH ITERATION (1 INDICATES THE FIRST INNER ITERATION):

    HEAD CHANGE    HEAD CHANGE    HEAD CHANGE    HEAD CHANGE    HEAD CHANGE 
   LAYER,ROW,COL  LAYER,ROW,COL  LAYER,ROW,COL  LAYER,ROW,COL  LAYER,ROW,COL
 ---------------------------------------------------------------------------
  1 -0.2460      0  0.1602      0 -0.1409      0 -0.1103      0 -0.1481    
   (  5, 21,  2)  (  5, 17,  1)  (  5, 16,  2)  (  5, 17,  1)  (  5, 19,  1)
  0 -0.8777E-01  0  0.7683E-01  0  0.5676E-01  0 -0.5198E-01  0  0.3040E-01
   (  5, 20,  1)  (  5, 18,  1)  (  5, 19,  1)  (  5, 18,  1)  (  5, 18,  4)
  0 -0.2605E-01  0  0.1789E-01  0 -0.1477E-01  0 -0.1075E-01  0  0.6740E-02
   (  5, 17,  3)  (  5, 16,  3)  (  5, 15,  1)  (  5, 12,  5)  (  5, 19,  1)
  0 -0.5498E-02  0  0.6710E-02  0  0.3556E-02  0  0.4310E-02  0 -0.1624E-02
   (  5, 18,  1)  (  5, 18,  2)  (  5, 16,  1)  (  5, 19,  3)  (  5, 18,  2)
  0  0.1102E-02  0 -0.1528E-02  0 -0.7796E-03  0 -0.6806E-03  0 -0.4861E-03
   (  5, 18,  1)  (  5, 16,  1)  (  5, 20,  1)  (  5, 19,  3)  (  5, 18,  5)
  0 -0.3702E-03  0  0.2206E-03  0  0.2478E-03  0 -0.1640E-03  0  0.1036E-03
   (  5, 20,  3)  (  5, 19,  2)  (  5, 15,  4)  (  5,  6,  1)  (  5, 15,  1)
  1 -0.1984E-03  0  0.3434E-03  0  0.3021E-03  0 -0.2334E-03  0 -0.1973E-03
   (  5, 15,  1)  (  5, 16,  1)  (  5, 20,  1)  (  5, 12,  1)  (  5, 19,  1)
  0  0.1501E-03  0 -0.9118E-04  0  0.5371E-04  0 -0.4517E-04  0 -0.2575E-04
   (  5, 18,  1)  (  5, 13,  4)  (  5, 11,  4)  (  5, 12,  5)  (  5, 15,  4)
  0 -0.2758E-04  0  0.1608E-04  0 -0.2683E-04  0 -0.1661E-04  0  0.1225E-04
   (  5, 17,  1)  (  5, 16,  3)  (  5, 20,  1)  (  5, 19,  3)  (  5, 19,  4)
  0 -0.9762E-05  0  0.6014E-05  0 -0.4755E-05  0  0.3534E-05  0  0.3292E-05
   (  5, 20,  1)  (  5, 18,  1)  (  5, 19,  1)  (  5, 20,  3)  (  5, 15,  1)
  0 -0.1475E-05  0  0.1922E-05  0  0.8264E-06  1 -0.1222E-05  0 -0.1372E-05
   (  5, 16,  1)  (  5, 17,  3)  (  5, 21,  2)  (  5, 19,  1)  (  5, 16,  2)
  0  0.9605E-06  1 -0.1047E-05  0  0.1023E-05  0  0.9870E-06  1 -0.8524E-06
   (  5, 16,  1)  (  5, 16,  1)  (  5, 17,  3)  (  5, 19,  1)  (  5, 19,  1)

 MAXIMUM RESIDUAL FOR EACH ITERATION (1 INDICATES THE FIRST INNER ITERATION):

    RESIDUAL       RESIDUAL       RESIDUAL       RESIDUAL       RESIDUAL    
   LAYER,ROW,COL  LAYER,ROW,COL  LAYER,ROW,COL  LAYER,ROW,COL  LAYER,ROW,COL
 ---------------------------------------------------------------------------
  1  0.6979E-02  0  0.6309E-02  0  0.5692E-02  0  0.4879E-02  0  0.3940E-02
   (  3, 17, 17)  (  3, 17, 17)  (  3, 17, 17)  (  3, 17, 17)  (  3, 17, 17)
  0  0.3003E-02  0  0.2042E-02  0  0.1242E-02  0  0.7353E-03  0  0.4675E-03
   (  3, 17, 17)  (  3, 17, 17)  (  3, 17, 17)  (  3, 20, 11)  (  3, 20, 11)
  0  0.3053E-03  0  0.2648E-03  0  0.2295E-03  0  0.1851E-03  0  0.1469E-03
   (  3, 20, 11)  (  4, 16, 17)  (  4, 16, 17)  (  4, 16, 17)  (  4, 16, 17)
  0  0.1287E-03  0  0.1021E-03  0  0.7583E-04  0  0.5489E-04  0  0.3809E-04
   (  4, 16, 17)  (  4, 16, 17)  (  4, 16, 17)  (  4, 16, 17)  (  4, 16, 17)
  0  0.3331E-04  0  0.2734E-04  0  0.2266E-04  0  0.1543E-04  0  0.9560E-05
   (  4, 16, 17)  (  4, 16, 17)  (  4, 16, 17)  (  4, 16, 17)  (  4, 16, 17)
  0 -0.6036E-05  0 -0.5244E-05  0 -0.3018E-05  0 -0.1509E-05  0  0.1179E-05
   (  3, 21,  6)  (  3, 21,  6)  (  3, 21,  6)  (  3, 21,  6)  (  3, 17, 17)
  1  0.2278E-05  0  0.1550E-05  0  0.1097E-05  0 -0.7759E-06  0 -0.7369E-06
   (  2, 17, 17)  (  5,  6,  1)  (  5, 14,  2)  (  4, 18, 14)  (  4, 18, 14)
  0 -0.6390E-06  0 -0.4946E-06  0  0.3855E-06  0  0.2958E-06  0  0.2321E-06
   (  4, 18, 14)  (  4, 18, 14)  (  4, 20,  2)  (  4, 16, 17)  (  4, 16, 17)
  0  0.1956E-06  0  0.1741E-06  0  0.1276E-06  0  0.9811E-07  0  0.7000E-07
   (  4, 16, 17)  (  4, 16, 17)  (  2, 17, 17)  (  2, 17, 17)  (  2, 17, 17)
  0  0.4917E-07  0  0.4283E-07  0  0.3276E-07  0 -0.2700E-07  0 -0.2711E-07
   (  2, 17, 17)  (  2, 17, 17)  (  4, 21,  1)  (  4, 20,  2)  (  4, 20,  2)
  0 -0.2526E-07  0 -0.1865E-07  0 -0.1413E-07  1 -0.1299E-07  0  0.7924E-08
   (  4, 20,  2)  (  4, 20,  2)  (  4, 20,  2)  (  4, 20,  2)  (  2, 21,  4)
  0  0.7316E-08  1  0.7273E-08  0  0.6773E-08  0  0.6260E-08  1  0.6146E-08
   (  2, 21,  4)  (  2, 21,  4)  (  2, 21,  4)  (  2, 21,  4)  (  2, 21,  4)



 OUTPUT CONTROL FOR STRESS PERIOD  124   TIME STEP    3
    SAVE HEAD FOR ALL LAYERS
    SAVE DRAWDOWN FOR ALL LAYERS
    SAVE BUDGET
    PRINT BUDGET
 UBDSV1 SAVING "         STORAGE" ON UNIT   9 AT TIME STEP  3, STRESS PERIOD 124
 UBDSV2 SAVING "   CONSTANT HEAD" ON UNIT   9 AT TIME STEP  3, STRESS PERIOD 124
 UBDSV1 SAVING "FLOW RIGHT FACE " ON UNIT   9 AT TIME STEP  3, STRESS PERIOD 124
 UBDSV1 SAVING "FLOW FRONT FACE " ON UNIT   9 AT TIME STEP  3, STRESS PERIOD 124
 UBDSV1 SAVING "FLOW LOWER FACE " ON UNIT   9 AT TIME STEP  3, STRESS PERIOD 124
 UBDSV3 SAVING "        RECHARGE" ON UNIT   9 AT TIME STEP  3, STRESS PERIOD 124

 HEAD WILL BE SAVED ON UNIT   37 AT END OF TIME STEP    3, STRESS PERIOD  124

 DRAWDOWN WILL BE SAVED ON UNIT   38 AT END OF TIME STEP    3, STRESS PERIOD  124
1
  VOLUMETRIC BUDGET FOR ENTIRE MODEL AT END OF TIME STEP    3, STRESS PERIOD 124
  ------------------------------------------------------------------------------

     CUMULATIVE VOLUMES      L**3       RATES FOR THIS TIME STEP      L**3/T
     ------------------                 ------------------------

           IN:                                      IN:
           ---                                      ---
             STORAGE =       17858.9688               STORAGE =       2.8846E-03
       CONSTANT HEAD =       31634.3887         CONSTANT HEAD =       1.5598E-03
            RECHARGE =        1478.9352              RECHARGE =       9.7813E-05

            TOTAL IN =       50972.2930              TOTAL IN =       4.5423E-03

          OUT:                                     OUT:
          ----                                     ----
             STORAGE =       14970.8682               STORAGE =           0.0000
       CONSTANT HEAD =       36002.8516         CONSTANT HEAD =       4.5424E-03
            RECHARGE =           0.0000              RECHARGE =           0.0000

           TOTAL OUT =       50973.7188             TOTAL OUT =       4.5424E-03

            IN - OUT =          -1.4258              IN - OUT =      -1.0245E-07

 PERCENT DISCREPANCY =          -0.00     PERCENT DISCREPANCY =          -0.00






         TIME SUMMARY AT END OF TIME STEP    3 IN STRESS PERIOD  124
                    SECONDS     MINUTES      HOURS       DAYS        YEARS
                    -----------------------------------------------------------
   TIME STEP LENGTH  86400.      1440.0      24.000      1.0000     2.73785E-03
 STRESS PERIOD TIME 2.59200E+05  4320.0      72.000      3.0000     8.21355E-03
         TOTAL TIME 1.51200E+07 2.52000E+05  4200.0      175.00     0.47912    
1
1
                            STRESS PERIOD NO.  125, LENGTH =   86400.00    
                            -----------------------------------------------

                              NUMBER OF TIME STEPS =     1

                               MULTIPLIER FOR DELT =     1.000

                            INITIAL TIME STEP SIZE =   86400.00    

 REUSING RECH FROM LAST STRESS PERIOD

 CHD NO.   LAYER   ROW   COL    START HEAD        END HEAD         IFACE           
 ----------------------------------------------------------------------------------
      1      4      1      1       110.1           110.0           0.000    
      2      5      1      1       110.1           110.0           0.000    
      3      4      1      2       110.1           110.0           0.000    
      4      5      1      2       110.1           110.0           0.000    
      5      4      1      3       110.1           110.0           0.000    
      6      5      1      3       110.1           110.0           0.000    
      7      4      1      4       110.1           110.0           0.000    
      8      5      1      4       110.1           110.0           0.000    
      9      4      1      5       110.1           110.0           0.000    
     10      5      1      5       110.1           110.0           0.000    
     11      4      1      6       110.1           110.0           0.000    
     12      5      1      6       110.1           110.0           0.000    
     13      4      1      7       110.1           110.0           0.000    
     14      5      1      7       110.1           110.0           0.000    
     15      4      1      8       110.1           110.0           0.000    
     16      5      1      8       110.1           110.0           0.000    
     17      4      1      9       110.1           110.0           0.000    
     18      5      1      9       110.1           110.0           0.000    
     19      4      1     10       110.1           110.0           0.000    
     20      5      1     10       110.1           110.0           0.000    
     21      4      1     11       110.1           110.0           0.000    
     22      5      1     11       110.1           110.0           0.000    
     23      4      1     12       110.1           110.0           0.000    
     24      5      1     12       110.1           110.0           0.000    
     25      4      1     13       110.1           110.0           0.000    
     26      5      1     13       110.1           110.0           0.000    
     27      4      1     14       110.1           110.0           0.000    
     28      5      1     14       110.1           110.0           0.000    
     29      4      1     15       110.1           110.0           0.000    
     30      5      1     15       110.1           110.0           0.000    
     31      4      1     16       110.1           110.0           0.000    
     32      5      1     16       110.1           110.0           0.000    
     33      4      1     17       110.1           110.0           0.000    
     34      5      1     17       110.1           110.0           0.000    
     35      4     17     17       109.8           109.8           0.000    
     36      5     17     17       109.8           109.8           0.000    
     37      4     18     17       109.8           109.8           0.000    
     38      5     18     17       109.8           109.8           0.000    
     39      4     18     16       109.8           109.8           0.000    
     40      5     18     16       109.8           109.8           0.000    
     41      4     19     16       109.8           109.8           0.000    
     42      5     19     16       109.8           109.8           0.000    
     43      4     19     15       109.8           109.8           0.000    
     44      5     19     15       109.8           109.8           0.000    
     45      4     20     15       109.8           109.8           0.000    
     46      5     20     15       109.8           109.8           0.000    
     47      4     20     14       109.8           109.8           0.000    
     48      5     20     14       109.8           109.8           0.000    
     49      4     20     13       109.8           109.8           0.000    
     50      5     20     13       109.8           109.8           0.000    
     51      4     20     12       109.8           109.8           0.000    
     52      5     20     12       109.8           109.8           0.000    
     53      4     20     11       109.8           109.8           0.000    
     54      5     20     11       109.8           109.8           0.000    
     55      4     21     11       109.8           109.8           0.000    
     56      5     21     11       109.8           109.8           0.000    
     57      4     21     10       109.8           109.8           0.000    
     58      5     21     10       109.8           109.8           0.000    
     59      4     21      9       109.8           109.8           0.000    
     60      5     21      9       109.8           109.8           0.000    
     61      4     21      8       109.8           109.8           0.000    
     62      5     21      8       109.8           109.8           0.000    
     63      4     21      7       109.8           109.8           0.000    
     64      5     21      7       109.8           109.8           0.000    
     65      4     21      6       109.8           109.8           0.000    
     66      5     21      6       109.8           109.8           0.000    
     67      4     21      5       109.8           109.8           0.000    
     68      5     21      5       109.8           109.8           0.000    
     69      4     22      5       109.8           109.8           0.000    
     70      5     22      5       109.8           109.8           0.000    
     71      4     22      4       109.8           109.8           0.000    
     72      5     22      4       109.8           109.8           0.000    
     73      4     22      3       109.8           109.8           0.000    
     74      5     22      3       109.8           109.8           0.000    
     75      4     22      2       109.8           109.8           0.000    
     76      5     22      2       109.8           109.8           0.000    
     77      4     22      1       109.8           109.8           0.000    
     78      5     22      1       109.8           109.8           0.000    


     78 TIME-VARIANT SPECIFIED-HEAD CELLS

 SOLVING FOR HEAD 


     3 CALLS TO PCG ROUTINE FOR TIME STEP   1 IN STRESS PERIOD  125
    51 TOTAL ITERATIONS

 MAXIMUM HEAD CHANGE FOR EACH ITERATION (1 INDICATES THE FIRST INNER ITERATION):

    HEAD CHANGE    HEAD CHANGE    HEAD CHANGE    HEAD CHANGE    HEAD CHANGE 
   LAYER,ROW,COL  LAYER,ROW,COL  LAYER,ROW,COL  LAYER,ROW,COL  LAYER,ROW,COL
 ---------------------------------------------------------------------------
  1 -0.8535E-01  0  0.5369E-01  0 -0.4546E-01  0 -0.3536E-01  0 -0.4358E-01
   (  5, 21,  2)  (  5, 18,  1)  (  5, 15,  1)  (  5, 18,  1)  (  5, 19,  1)
  0 -0.2699E-01  0  0.2232E-01  0 -0.1695E-01  0 -0.1369E-01  0 -0.8344E-02
   (  5, 17,  4)  (  5, 18,  1)  (  5, 17,  1)  (  5, 18,  1)  (  5, 19,  1)
  0 -0.6910E-02  0  0.4436E-02  0 -0.4014E-02  0 -0.2635E-02  0 -0.1750E-02
   (  5, 17,  3)  (  5, 16,  2)  (  5, 14,  1)  (  5, 12,  5)  (  5, 19,  3)
  0  0.1381E-02  0  0.9112E-03  0 -0.9205E-03  0  0.1136E-02  0  0.4768E-03
   (  5, 18,  3)  (  5, 18,  1)  (  5, 17,  2)  (  5, 19,  3)  (  5, 17,  2)
  0  0.3530E-03  0 -0.3488E-03  0  0.2130E-03  0 -0.1843E-03  0 -0.1450E-03
   (  5, 20,  3)  (  5, 17,  1)  (  5, 15,  1)  (  5, 16,  2)  (  5, 18,  5)
  0 -0.7427E-04  0 -0.5804E-04  0  0.5650E-04  0 -0.3436E-04  0  0.2852E-04
   (  5, 20,  3)  (  5, 19,  5)  (  5, 18,  1)  (  5, 17,  1)  (  5, 17,  2)
  1 -0.6753E-04  0  0.1262E-03  0 -0.1619E-03  0  0.9502E-04  0 -0.6691E-04
   (  5, 14,  1)  (  5, 17,  1)  (  5, 18,  1)  (  5, 11,  4)  (  5, 12,  3)
  0  0.4507E-04  0 -0.4765E-04  0  0.2544E-04  0 -0.1335E-04  0 -0.8494E-05
   (  5, 18,  1)  (  5, 19,  1)  (  5, 20,  1)  (  5, 20,  1)  (  5, 18,  2)
  0 -0.8202E-05  0  0.5913E-05  0 -0.5721E-05  0  0.3822E-05  0 -0.2984E-05
   (  5, 16,  1)  (  5, 18,  3)  (  5, 17,  3)  (  5, 16,  1)  (  5, 18,  1)
  0 -0.2728E-05  0  0.2211E-05  0 -0.1841E-05  0  0.1239E-05  0 -0.6465E-06
   (  5, 20,  1)  (  5, 18,  1)  (  5, 20,  3)  (  5, 20,  3)  (  5, 13,  6)
  1 -0.4536E-06
   (  5, 16,  5)

 MAXIMUM RESIDUAL FOR EACH ITERATION (1 INDICATES THE FIRST INNER ITERATION):

    RESIDUAL       RESIDUAL       RESIDUAL       RESIDUAL       RESIDUAL    
   LAYER,ROW,COL  LAYER,ROW,COL  LAYER,ROW,COL  LAYER,ROW,COL  LAYER,ROW,COL
 ---------------------------------------------------------------------------
  1  0.1384E-02  0  0.1222E-02  0  0.1081E-02  0  0.9132E-03  0  0.7163E-03
   (  3, 17, 17)  (  3, 17, 17)  (  3, 17, 17)  (  3, 17, 17)  (  3, 17, 17)
  0  0.5229E-03  0  0.3295E-03  0  0.1835E-03  0  0.1001E-03  0 -0.7417E-04
   (  3, 17, 17)  (  3, 17, 17)  (  3, 17, 17)  (  3, 17, 17)  (  5, 16, 17)
  0 -0.6432E-04  0 -0.5962E-04  0 -0.4649E-04  0 -0.3463E-04  0  0.2616E-04
   (  4, 21,  2)  (  4, 21,  2)  (  4, 21,  2)  (  4, 21,  2)  (  4, 16, 17)
  0  0.1867E-04  0  0.1665E-04  0 -0.1172E-04  0 -0.9559E-05  0 -0.7232E-05
   (  4, 16, 17)  (  4, 16, 17)  (  3, 21,  6)  (  3, 21,  6)  (  3, 21,  6)
  0 -0.6042E-05  0 -0.5404E-05  0 -0.4772E-05  0 -0.3524E-05  0 -0.2284E-05
   (  3, 21,  6)  (  3, 21,  6)  (  3, 21,  6)  (  3, 21,  6)  (  3, 21,  6)
  0 -0.1391E-05  0 -0.7264E-06  0  0.3709E-06  0  0.3432E-06  0  0.2935E-06
   (  3, 21,  6)  (  3, 21,  6)  (  5, 15, 17)  (  5, 15, 17)  (  5, 15, 17)
  1  0.6776E-06  0  0.5088E-06  0  0.4577E-06  0 -0.3439E-06  0  0.1872E-06
   (  2,  8,  5)  (  2,  8,  5)  (  5,  7,  3)  (  4,  8,  4)  (  5,  8,  2)
  0 -0.1748E-06  0 -0.1532E-06  0 -0.1185E-06  0 -0.8126E-07  0 -0.5510E-07
   (  4, 18, 14)  (  4, 18, 14)  (  4, 18, 14)  (  4, 18, 14)  (  3,  8,  5)
  0 -0.4848E-07  0 -0.4401E-07  0 -0.3298E-07  0 -0.2492E-07  0 -0.1814E-07
   (  3,  8,  5)  (  3,  8,  5)  (  3,  8,  5)  (  3, 17, 17)  (  3, 17, 17)
  0  0.1215E-07  0  0.1082E-07  0  0.6839E-08  0  0.4356E-08  0  0.3227E-08
   (  4, 18, 14)  (  4, 18, 14)  (  4, 18, 14)  (  4, 11, 10)  (  4, 19,  3)
  1 -0.2653E-08
   (  4, 20,  2)



 OUTPUT CONTROL FOR STRESS PERIOD  125   TIME STEP    1
    SAVE HEAD FOR ALL LAYERS
    SAVE DRAWDOWN FOR ALL LAYERS
    SAVE BUDGET
    PRINT BUDGET
 UBDSV1 SAVING "         STORAGE" ON UNIT   9 AT TIME STEP  1, STRESS PERIOD 125
 UBDSV2 SAVING "   CONSTANT HEAD" ON UNIT   9 AT TIME STEP  1, STRESS PERIOD 125
 UBDSV1 SAVING "FLOW RIGHT FACE " ON UNIT   9 AT TIME STEP  1, STRESS PERIOD 125
 UBDSV1 SAVING "FLOW FRONT FACE " ON UNIT   9 AT TIME STEP  1, STRESS PERIOD 125
 UBDSV1 SAVING "FLOW LOWER FACE " ON UNIT   9 AT TIME STEP  1, STRESS PERIOD 125
 UBDSV3 SAVING "        RECHARGE" ON UNIT   9 AT TIME STEP  1, STRESS PERIOD 125

 HEAD WILL BE SAVED ON UNIT   37 AT END OF TIME STEP    1, STRESS PERIOD  125

 DRAWDOWN WILL BE SAVED ON UNIT   38 AT END OF TIME STEP    1, STRESS PERIOD  125
1
  VOLUMETRIC BUDGET FOR ENTIRE MODEL AT END OF TIME STEP    1, STRESS PERIOD 125
  ------------------------------------------------------------------------------

     CUMULATIVE VOLUMES      L**3       RATES FOR THIS TIME STEP      L**3/T
     ------------------                 ------------------------

           IN:                                      IN:
           ---                                      ---
             STORAGE =       18018.0938               STORAGE =       1.8417E-03
       CONSTANT HEAD =       31760.4238         CONSTANT HEAD =       1.4587E-03
            RECHARGE =        1487.3862              RECHARGE =       9.7813E-05

            TOTAL IN =       51265.9023              TOTAL IN =       3.3983E-03

          OUT:                                     OUT:
          ----                                     ----
             STORAGE =       14970.8682               STORAGE =           0.0000
       CONSTANT HEAD =       36296.4688         CONSTANT HEAD =       3.3984E-03
            RECHARGE =           0.0000              RECHARGE =           0.0000

           TOTAL OUT =       51267.3359             TOTAL OUT =       3.3984E-03

            IN - OUT =          -1.4336              IN - OUT =      -7.8697E-08

 PERCENT DISCREPANCY =          -0.00     PERCENT DISCREPANCY =          -0.00






         TIME SUMMARY AT END OF TIME STEP    1 IN STRESS PERIOD  125
                    SECONDS     MINUTES      HOURS       DAYS        YEARS
                    -----------------------------------------------------------
   TIME STEP LENGTH  86400.      1440.0      24.000      1.0000     2.73785E-03
 STRESS PERIOD TIME  86400.      1440.0      24.000      1.0000     2.73785E-03
         TOTAL TIME 1.52064E+07 2.53440E+05  4224.0      176.00     0.48186    
1
1
                            STRESS PERIOD NO.  126, LENGTH =   86400.00    
                            -----------------------------------------------

                              NUMBER OF TIME STEPS =     1

                               MULTIPLIER FOR DELT =     1.000

                            INITIAL TIME STEP SIZE =   86400.00    

 REUSING RECH FROM LAST STRESS PERIOD

 CHD NO.   LAYER   ROW   COL    START HEAD        END HEAD         IFACE           
 ----------------------------------------------------------------------------------
      1      4      1      1       110.0           110.0           0.000    
      2      5      1      1       110.0           110.0           0.000    
      3      4      1      2       110.0           110.0           0.000    
      4      5      1      2       110.0           110.0           0.000    
      5      4      1      3       110.0           110.0           0.000    
      6      5      1      3       110.0           110.0           0.000    
      7      4      1      4       110.0           110.0           0.000    
      8      5      1      4       110.0           110.0           0.000    
      9      4      1      5       110.0           110.0           0.000    
     10      5      1      5       110.0           110.0           0.000    
     11      4      1      6       110.0           110.0           0.000    
     12      5      1      6       110.0           110.0           0.000    
     13      4      1      7       110.0           110.0           0.000    
     14      5      1      7       110.0           110.0           0.000    
     15      4      1      8       110.0           110.0           0.000    
     16      5      1      8       110.0           110.0           0.000    
     17      4      1      9       110.0           110.0           0.000    
     18      5      1      9       110.0           110.0           0.000    
     19      4      1     10       110.0           110.0           0.000    
     20      5      1     10       110.0           110.0           0.000    
     21      4      1     11       110.0           110.0           0.000    
     22      5      1     11       110.0           110.0           0.000    
     23      4      1     12       110.0           110.0           0.000    
     24      5      1     12       110.0           110.0           0.000    
     25      4      1     13       110.0           110.0           0.000    
     26      5      1     13       110.0           110.0           0.000    
     27      4      1     14       110.0           110.0           0.000    
     28      5      1     14       110.0           110.0           0.000    
     29      4      1     15       110.0           110.0           0.000    
     30      5      1     15       110.0           110.0           0.000    
     31      4      1     16       110.0           110.0           0.000    
     32      5      1     16       110.0           110.0           0.000    
     33      4      1     17       110.0           110.0           0.000    
     34      5      1     17       110.0           110.0           0.000    
     35      4     17     17       109.8           109.8           0.000    
     36      5     17     17       109.8           109.8           0.000    
     37      4     18     17       109.8           109.8           0.000    
     38      5     18     17       109.8           109.8           0.000    
     39      4     18     16       109.8           109.8           0.000    
     40      5     18     16       109.8           109.8           0.000    
     41      4     19     16       109.8           109.8           0.000    
     42      5     19     16       109.8           109.8           0.000    
     43      4     19     15       109.8           109.8           0.000    
     44      5     19     15       109.8           109.8           0.000    
     45      4     20     15       109.8           109.8           0.000    
     46      5     20     15       109.8           109.8           0.000    
     47      4     20     14       109.8           109.8           0.000    
     48      5     20     14       109.8           109.8           0.000    
     49      4     20     13       109.8           109.8           0.000    
     50      5     20     13       109.8           109.8           0.000    
     51      4     20     12       109.8           109.8           0.000    
     52      5     20     12       109.8           109.8           0.000    
     53      4     20     11       109.8           109.8           0.000    
     54      5     20     11       109.8           109.8           0.000    
     55      4     21     11       109.8           109.8           0.000    
     56      5     21     11       109.8           109.8           0.000    
     57      4     21     10       109.8           109.8           0.000    
     58      5     21     10       109.8           109.8           0.000    
     59      4     21      9       109.8           109.8           0.000    
     60      5     21      9       109.8           109.8           0.000    
     61      4     21      8       109.8           109.8           0.000    
     62      5     21      8       109.8           109.8           0.000    
     63      4     21      7       109.8           109.8           0.000    
     64      5     21      7       109.8           109.8           0.000    
     65      4     21      6       109.8           109.8           0.000    
     66      5     21      6       109.8           109.8           0.000    
     67      4     21      5       109.8           109.8           0.000    
     68      5     21      5       109.8           109.8           0.000    
     69      4     22      5       109.8           109.8           0.000    
     70      5     22      5       109.8           109.8           0.000    
     71      4     22      4       109.8           109.8           0.000    
     72      5     22      4       109.8           109.8           0.000    
     73      4     22      3       109.8           109.8           0.000    
     74      5     22      3       109.8           109.8           0.000    
     75      4     22      2       109.8           109.8           0.000    
     76      5     22      2       109.8           109.8           0.000    
     77      4     22      1       109.8           109.8           0.000    
     78      5     22      1       109.8           109.8           0.000    


     78 TIME-VARIANT SPECIFIED-HEAD CELLS

 SOLVING FOR HEAD 


     3 CALLS TO PCG ROUTINE FOR TIME STEP   1 IN STRESS PERIOD  126
    48 TOTAL ITERATIONS

 MAXIMUM HEAD CHANGE FOR EACH ITERATION (1 INDICATES THE FIRST INNER ITERATION):

    HEAD CHANGE    HEAD CHANGE    HEAD CHANGE    HEAD CHANGE    HEAD CHANGE 
   LAYER,ROW,COL  LAYER,ROW,COL  LAYER,ROW,COL  LAYER,ROW,COL  LAYER,ROW,COL
 ---------------------------------------------------------------------------
  1  0.4039E-01  0 -0.3030E-01  0  0.2172E-01  0 -0.1953E-01  0  0.2536E-01
   (  5, 21,  2)  (  5, 18,  1)  (  5, 16,  2)  (  5, 14,  2)  (  5, 19,  1)
  0 -0.1323E-01  0 -0.1212E-01  0 -0.9142E-02  0  0.6285E-02  0 -0.4077E-02
   (  5, 13,  4)  (  5, 18,  1)  (  5, 17,  3)  (  5, 18,  1)  (  5, 18,  4)
  0  0.2569E-02  0  0.2039E-02  0 -0.2486E-02  0  0.1641E-02  0 -0.1172E-02
   (  5, 14,  4)  (  5, 14,  1)  (  5, 16,  2)  (  5, 12,  5)  (  5, 11,  4)
  0 -0.1188E-02  0  0.5629E-03  0 -0.6419E-03  0 -0.6283E-03  0 -0.2699E-03
   (  5, 18,  2)  (  5, 18,  1)  (  5, 16,  1)  (  5, 19,  3)  (  5, 17,  2)
  0  0.2515E-03  0 -0.1989E-03  0  0.1782E-03  0 -0.1207E-03  0  0.6011E-04
   (  5, 16,  1)  (  5, 17,  2)  (  5, 19,  2)  (  5, 19,  1)  (  5, 17,  2)
  0  0.6350E-04  0 -0.3396E-04  0  0.2752E-04  0 -0.2805E-04  0  0.1335E-04
   (  5, 20,  3)  (  5, 15,  4)  (  5, 19,  2)  (  5, 18,  1)  (  5, 20,  1)
  1 -0.2251E-04  0  0.3451E-04  0 -0.3740E-04  0 -0.2623E-04  0 -0.3368E-04
   (  5, 15,  1)  (  5, 18,  3)  (  5, 17,  2)  (  5, 13,  2)  (  5, 19,  1)
  0  0.1731E-04  0 -0.1337E-04  0  0.1341E-04  0  0.7067E-05  0  0.4257E-05
   (  5, 19,  1)  (  5, 18,  1)  (  5, 11,  4)  (  5, 18,  2)  (  5, 16,  2)
  0  0.3703E-05  0 -0.2450E-05  0  0.2132E-05  0 -0.1389E-05  0  0.1388E-05
   (  5, 19,  3)  (  5, 16,  3)  (  5, 17,  1)  (  5, 15,  1)  (  5, 12,  1)
  0  0.1177E-05  0 -0.6465E-06  1 -0.4925E-06
   (  5, 18,  1)  (  5, 19,  2)  (  5, 15,  3)

 MAXIMUM RESIDUAL FOR EACH ITERATION (1 INDICATES THE FIRST INNER ITERATION):

    RESIDUAL       RESIDUAL       RESIDUAL       RESIDUAL       RESIDUAL    
   LAYER,ROW,COL  LAYER,ROW,COL  LAYER,ROW,COL  LAYER,ROW,COL  LAYER,ROW,COL
 ---------------------------------------------------------------------------
  1 -0.8036E-03  0 -0.6898E-03  0 -0.6017E-03  0 -0.4825E-03  0 -0.3473E-03
   (  3, 17, 17)  (  3, 17, 17)  (  3, 17, 17)  (  3, 17, 17)  (  3, 17, 17)
  0 -0.2328E-03  0 -0.1383E-03  0 -0.7554E-04  0  0.4578E-04  0  0.4366E-04
   (  3, 20, 11)  (  3, 20, 11)  (  3, 20, 11)  (  4, 21,  2)  (  4, 21,  2)
  0  0.3628E-04  0 -0.3061E-04  0 -0.2734E-04  0 -0.2126E-04  0 -0.1534E-04
   (  4, 21,  2)  (  4, 16, 17)  (  4, 16, 17)  (  4, 16, 17)  (  4, 16, 17)
  0 -0.1077E-04  0 -0.9617E-05  0 -0.6916E-05  0  0.5299E-05  0  0.3919E-05
   (  4, 16, 17)  (  4, 16, 17)  (  4, 16, 17)  (  3, 21,  6)  (  3, 21,  6)
  0  0.3197E-05  0  0.2739E-05  0  0.2106E-05  0  0.1704E-05  0  0.1025E-05
   (  3, 21,  6)  (  3, 21,  6)  (  3, 21,  6)  (  3, 21,  6)  (  3, 21,  6)
  0  0.6415E-06  0  0.3933E-06  0  0.2965E-06  0  0.2316E-06  0  0.1527E-06
   (  3, 21,  5)  (  5, 16, 17)  (  5, 16, 17)  (  4, 20,  2)  (  3, 20, 11)
  1  0.2269E-06  0  0.1908E-06  0 -0.1489E-06  0  0.1213E-06  0  0.8851E-07
   (  2,  8,  5)  (  2,  8,  5)  (  4,  7,  3)  (  5,  6,  3)  (  3, 20, 11)
  0  0.7421E-07  0  0.5414E-07  0  0.3843E-07  0  0.3433E-07  0  0.2528E-07
   (  3, 20, 11)  (  3, 20, 11)  (  3, 20, 11)  (  4, 21,  1)  (  4, 21,  1)
  0 -0.1894E-07  0  0.1685E-07  0 -0.1257E-07  0  0.1092E-07  0 -0.8038E-08
   (  4, 20,  2)  (  4, 21,  1)  (  4, 20,  2)  (  4, 21,  1)  (  3,  8,  5)
  0 -0.5697E-08  0 -0.5034E-08  1 -0.5274E-08
   (  3,  8,  5)  (  3,  8,  5)  (  3,  8,  5)



 OUTPUT CONTROL FOR STRESS PERIOD  126   TIME STEP    1
    SAVE HEAD FOR ALL LAYERS
    SAVE DRAWDOWN FOR ALL LAYERS
    SAVE BUDGET
    PRINT BUDGET
 UBDSV1 SAVING "         STORAGE" ON UNIT   9 AT TIME STEP  1, STRESS PERIOD 126
 UBDSV2 SAVING "   CONSTANT HEAD" ON UNIT   9 AT TIME STEP  1, STRESS PERIOD 126
 UBDSV1 SAVING "FLOW RIGHT FACE " ON UNIT   9 AT TIME STEP  1, STRESS PERIOD 126
 UBDSV1 SAVING "FLOW FRONT FACE " ON UNIT   9 AT TIME STEP  1, STRESS PERIOD 126
 UBDSV1 SAVING "FLOW LOWER FACE " ON UNIT   9 AT TIME STEP  1, STRESS PERIOD 126
 UBDSV3 SAVING "        RECHARGE" ON UNIT   9 AT TIME STEP  1, STRESS PERIOD 126

 HEAD WILL BE SAVED ON UNIT   37 AT END OF TIME STEP    1, STRESS PERIOD  126

 DRAWDOWN WILL BE SAVED ON UNIT   38 AT END OF TIME STEP    1, STRESS PERIOD  126
1
  VOLUMETRIC BUDGET FOR ENTIRE MODEL AT END OF TIME STEP    1, STRESS PERIOD 126
  ------------------------------------------------------------------------------

     CUMULATIVE VOLUMES      L**3       RATES FOR THIS TIME STEP      L**3/T
     ------------------                 ------------------------

           IN:                                      IN:
           ---                                      ---
             STORAGE =       18075.6621               STORAGE =       6.6631E-04
       CONSTANT HEAD =       31890.9727         CONSTANT HEAD =       1.5110E-03
            RECHARGE =        1495.8373              RECHARGE =       9.7813E-05

            TOTAL IN =       51462.4688              TOTAL IN =       2.2751E-03

          OUT:                                     OUT:
          ----                                     ----
             STORAGE =       14972.9150               STORAGE =       2.3688E-05
       CONSTANT HEAD =       36491.0000         CONSTANT HEAD =       2.2515E-03
            RECHARGE =           0.0000              RECHARGE =           0.0000

           TOTAL OUT =       51463.9141             TOTAL OUT =       2.2752E-03

            IN - OUT =          -1.4453              IN - OUT =      -1.0827E-07

 PERCENT DISCREPANCY =          -0.00     PERCENT DISCREPANCY =          -0.00






         TIME SUMMARY AT END OF TIME STEP    1 IN STRESS PERIOD  126
                    SECONDS     MINUTES      HOURS       DAYS        YEARS
                    -----------------------------------------------------------
   TIME STEP LENGTH  86400.      1440.0      24.000      1.0000     2.73785E-03
 STRESS PERIOD TIME  86400.      1440.0      24.000      1.0000     2.73785E-03
         TOTAL TIME 1.52928E+07 2.54880E+05  4248.0      177.00     0.48460    
1
1
                            STRESS PERIOD NO.  127, LENGTH =   86400.00    
                            -----------------------------------------------

                              NUMBER OF TIME STEPS =     1

                               MULTIPLIER FOR DELT =     1.000

                            INITIAL TIME STEP SIZE =   86400.00    

 REUSING RECH FROM LAST STRESS PERIOD

 CHD NO.   LAYER   ROW   COL    START HEAD        END HEAD         IFACE           
 ----------------------------------------------------------------------------------
      1      4      1      1       110.0           110.0           0.000    
      2      5      1      1       110.0           110.0           0.000    
      3      4      1      2       110.0           110.0           0.000    
      4      5      1      2       110.0           110.0           0.000    
      5      4      1      3       110.0           110.0           0.000    
      6      5      1      3       110.0           110.0           0.000    
      7      4      1      4       110.0           110.0           0.000    
      8      5      1      4       110.0           110.0           0.000    
      9      4      1      5       110.0           110.0           0.000    
     10      5      1      5       110.0           110.0           0.000    
     11      4      1      6       110.0           110.0           0.000    
     12      5      1      6       110.0           110.0           0.000    
     13      4      1      7       110.0           110.0           0.000    
     14      5      1      7       110.0           110.0           0.000    
     15      4      1      8       110.0           110.0           0.000    
     16      5      1      8       110.0           110.0           0.000    
     17      4      1      9       110.0           110.0           0.000    
     18      5      1      9       110.0           110.0           0.000    
     19      4      1     10       110.0           110.0           0.000    
     20      5      1     10       110.0           110.0           0.000    
     21      4      1     11       110.0           110.0           0.000    
     22      5      1     11       110.0           110.0           0.000    
     23      4      1     12       110.0           110.0           0.000    
     24      5      1     12       110.0           110.0           0.000    
     25      4      1     13       110.0           110.0           0.000    
     26      5      1     13       110.0           110.0           0.000    
     27      4      1     14       110.0           110.0           0.000    
     28      5      1     14       110.0           110.0           0.000    
     29      4      1     15       110.0           110.0           0.000    
     30      5      1     15       110.0           110.0           0.000    
     31      4      1     16       110.0           110.0           0.000    
     32      5      1     16       110.0           110.0           0.000    
     33      4      1     17       110.0           110.0           0.000    
     34      5      1     17       110.0           110.0           0.000    
     35      4     17     17       109.8           109.8           0.000    
     36      5     17     17       109.8           109.8           0.000    
     37      4     18     17       109.8           109.8           0.000    
     38      5     18     17       109.8           109.8           0.000    
     39      4     18     16       109.8           109.8           0.000    
     40      5     18     16       109.8           109.8           0.000    
     41      4     19     16       109.8           109.8           0.000    
     42      5     19     16       109.8           109.8           0.000    
     43      4     19     15       109.8           109.8           0.000    
     44      5     19     15       109.8           109.8           0.000    
     45      4     20     15       109.8           109.8           0.000    
     46      5     20     15       109.8           109.8           0.000    
     47      4     20     14       109.8           109.8           0.000    
     48      5     20     14       109.8           109.8           0.000    
     49      4     20     13       109.8           109.8           0.000    
     50      5     20     13       109.8           109.8           0.000    
     51      4     20     12       109.8           109.8           0.000    
     52      5     20     12       109.8           109.8           0.000    
     53      4     20     11       109.8           109.8           0.000    
     54      5     20     11       109.8           109.8           0.000    
     55      4     21     11       109.8           109.8           0.000    
     56      5     21     11       109.8           109.8           0.000    
     57      4     21     10       109.8           109.8           0.000    
     58      5     21     10       109.8           109.8           0.000    
     59      4     21      9       109.8           109.8           0.000    
     60      5     21      9       109.8           109.8           0.000    
     61      4     21      8       109.8           109.8           0.000    
     62      5     21      8       109.8           109.8           0.000    
     63      4     21      7       109.8           109.8           0.000    
     64      5     21      7       109.8           109.8           0.000    
     65      4     21      6       109.8           109.8           0.000    
     66      5     21      6       109.8           109.8           0.000    
     67      4     21      5       109.8           109.8           0.000    
     68      5     21      5       109.8           109.8           0.000    
     69      4     22      5       109.8           109.8           0.000    
     70      5     22      5       109.8           109.8           0.000    
     71      4     22      4       109.8           109.8           0.000    
     72      5     22      4       109.8           109.8           0.000    
     73      4     22      3       109.8           109.8           0.000    
     74      5     22      3       109.8           109.8           0.000    
     75      4     22      2       109.8           109.8           0.000    
     76      5     22      2       109.8           109.8           0.000    
     77      4     22      1       109.8           109.8           0.000    
     78      5     22      1       109.8           109.8           0.000    


     78 TIME-VARIANT SPECIFIED-HEAD CELLS

 SOLVING FOR HEAD 


     3 CALLS TO PCG ROUTINE FOR TIME STEP   1 IN STRESS PERIOD  127
    45 TOTAL ITERATIONS

 MAXIMUM HEAD CHANGE FOR EACH ITERATION (1 INDICATES THE FIRST INNER ITERATION):

    HEAD CHANGE    HEAD CHANGE    HEAD CHANGE    HEAD CHANGE    HEAD CHANGE 
   LAYER,ROW,COL  LAYER,ROW,COL  LAYER,ROW,COL  LAYER,ROW,COL  LAYER,ROW,COL
 ---------------------------------------------------------------------------
  1  0.1792E-01  0 -0.1247E-01  0  0.9564E-02  0 -0.8007E-02  0  0.1174E-01
   (  5, 21,  2)  (  5, 18,  1)  (  5, 16,  2)  (  5, 15,  3)  (  5, 19,  1)
  0 -0.5824E-02  0 -0.5699E-02  0 -0.4675E-02  0  0.3205E-02  0 -0.2194E-02
   (  5, 13,  4)  (  5, 18,  1)  (  5, 17,  3)  (  5, 18,  1)  (  5, 18,  3)
  0  0.1589E-02  0 -0.1425E-02  0  0.1058E-02  0  0.7913E-03  0 -0.5218E-03
   (  5, 17,  3)  (  5, 16,  3)  (  5, 14,  1)  (  5, 12,  5)  (  5, 11,  4)
  0 -0.5583E-03  0  0.3057E-03  0 -0.3118E-03  0 -0.3003E-03  0 -0.1757E-03
   (  5, 18,  2)  (  5, 18,  1)  (  5, 16,  1)  (  5, 19,  3)  (  5, 17,  2)
  0  0.8773E-04  0 -0.9767E-04  0 -0.7663E-04  0  0.7733E-04  0  0.3323E-04
   (  5, 16,  1)  (  5, 15,  1)  (  5, 19,  1)  (  5, 19,  2)  (  5, 18,  5)
  0  0.2921E-04  0  0.2225E-04  0  0.1585E-04  0  0.1148E-04  0 -0.7465E-05
   (  5, 20,  3)  (  5, 14,  2)  (  5, 18,  1)  (  5,  6,  1)  (  5, 15,  1)
  1  0.8822E-05  0 -0.1007E-04  0  0.6838E-05  0 -0.8914E-05  0 -0.8459E-05
   (  5, 16,  2)  (  5,  6,  1)  (  5, 15,  4)  (  5, 14,  3)  (  5, 19,  1)
  0 -0.5238E-05  0  0.4833E-05  0 -0.2905E-05  0 -0.3778E-05  0  0.2018E-05
   (  5, 15,  2)  (  5, 11,  4)  (  5, 17,  2)  (  5, 20,  1)  (  5, 20,  1)
  0  0.1477E-05  0 -0.1658E-05  0  0.1038E-05  0  0.5910E-06  1 -0.3889E-06
   (  5, 19,  3)  (  5, 16,  1)  (  5, 17,  1)  (  5, 17,  5)  (  5, 21,  1)

 MAXIMUM RESIDUAL FOR EACH ITERATION (1 INDICATES THE FIRST INNER ITERATION):

    RESIDUAL       RESIDUAL       RESIDUAL       RESIDUAL       RESIDUAL    
   LAYER,ROW,COL  LAYER,ROW,COL  LAYER,ROW,COL  LAYER,ROW,COL  LAYER,ROW,COL
 ---------------------------------------------------------------------------
  1 -0.4782E-03  0 -0.4301E-03  0 -0.3896E-03  0 -0.3324E-03  0 -0.2590E-03
   (  3, 17, 17)  (  3, 17, 17)  (  3, 17, 17)  (  3, 17, 17)  (  3, 17, 17)
  0 -0.1901E-03  0 -0.1205E-03  0 -0.7204E-04  0 -0.4390E-04  0 -0.2734E-04
   (  3, 17, 17)  (  3, 20, 11)  (  3, 20, 11)  (  3, 20, 11)  (  3, 20, 11)
  0 -0.2113E-04  0 -0.1933E-04  0 -0.1695E-04  0 -0.1371E-04  0 -0.1035E-04
   (  4, 16, 17)  (  4, 16, 17)  (  4, 16, 17)  (  4, 16, 17)  (  4, 16, 17)
  0 -0.7940E-05  0 -0.6907E-05  0 -0.4859E-05  0 -0.3443E-05  0 -0.2359E-05
   (  4, 16, 17)  (  4, 16, 17)  (  4, 16, 17)  (  4, 16, 17)  (  4, 16, 17)
  0 -0.2199E-05  0  0.1594E-05  0  0.1365E-05  0  0.1021E-05  0  0.6359E-06
   (  4, 16, 17)  (  3, 21,  6)  (  3, 21,  6)  (  3, 21,  6)  (  3, 21,  6)
  0  0.3867E-06  0  0.2604E-06  0  0.2110E-06  0  0.1305E-06  0  0.1194E-06
   (  3, 21,  6)  (  3, 21,  5)  (  3, 21,  5)  (  3, 21,  5)  (  3, 21,  5)
  1  0.1176E-06  0  0.1045E-06  0  0.8623E-07  0  0.6834E-07  0  0.5469E-07
   (  3, 21,  5)  (  3, 21,  5)  (  3, 21,  5)  (  3, 21,  5)  (  3, 21,  5)
  0  0.3864E-07  0  0.2744E-07  0  0.2046E-07  0 -0.1812E-07  0 -0.1270E-07
   (  3, 20, 11)  (  3, 20, 11)  (  4, 18, 14)  (  4, 20,  2)  (  4, 20,  2)
  0 -0.1235E-07  0 -0.1054E-07  0 -0.8865E-08  0 -0.6927E-08  1 -0.6089E-08
   (  4, 20,  2)  (  4, 20,  2)  (  4, 20,  2)  (  4, 20,  2)  (  4, 20,  2)



 OUTPUT CONTROL FOR STRESS PERIOD  127   TIME STEP    1
    SAVE HEAD FOR ALL LAYERS
    SAVE DRAWDOWN FOR ALL LAYERS
    SAVE BUDGET
    PRINT BUDGET
 UBDSV1 SAVING "         STORAGE" ON UNIT   9 AT TIME STEP  1, STRESS PERIOD 127
 UBDSV2 SAVING "   CONSTANT HEAD" ON UNIT   9 AT TIME STEP  1, STRESS PERIOD 127
 UBDSV1 SAVING "FLOW RIGHT FACE " ON UNIT   9 AT TIME STEP  1, STRESS PERIOD 127
 UBDSV1 SAVING "FLOW FRONT FACE " ON UNIT   9 AT TIME STEP  1, STRESS PERIOD 127
 UBDSV1 SAVING "FLOW LOWER FACE " ON UNIT   9 AT TIME STEP  1, STRESS PERIOD 127
 UBDSV3 SAVING "        RECHARGE" ON UNIT   9 AT TIME STEP  1, STRESS PERIOD 127

 HEAD WILL BE SAVED ON UNIT   37 AT END OF TIME STEP    1, STRESS PERIOD  127

 DRAWDOWN WILL BE SAVED ON UNIT   38 AT END OF TIME STEP    1, STRESS PERIOD  127
1
  VOLUMETRIC BUDGET FOR ENTIRE MODEL AT END OF TIME STEP    1, STRESS PERIOD 127
  ------------------------------------------------------------------------------

     CUMULATIVE VOLUMES      L**3       RATES FOR THIS TIME STEP      L**3/T
     ------------------                 ------------------------

           IN:                                      IN:
           ---                                      ---
             STORAGE =       18091.6523               STORAGE =       1.8507E-04
       CONSTANT HEAD =       32033.4766         CONSTANT HEAD =       1.6493E-03
            RECHARGE =        1504.2883              RECHARGE =       9.7813E-05

            TOTAL IN =       51629.4180              TOTAL IN =       1.9322E-03

          OUT:                                     OUT:
          ----                                     ----
             STORAGE =       14976.2832               STORAGE =       3.8981E-05
       CONSTANT HEAD =       36654.5859         CONSTANT HEAD =       1.8933E-03
            RECHARGE =           0.0000              RECHARGE =           0.0000

           TOTAL OUT =       51630.8672             TOTAL OUT =       1.9323E-03

            IN - OUT =          -1.4492              IN - OUT =      -1.0303E-07

 PERCENT DISCREPANCY =          -0.00     PERCENT DISCREPANCY =          -0.01






         TIME SUMMARY AT END OF TIME STEP    1 IN STRESS PERIOD  127
                    SECONDS     MINUTES      HOURS       DAYS        YEARS
                    -----------------------------------------------------------
   TIME STEP LENGTH  86400.      1440.0      24.000      1.0000     2.73785E-03
 STRESS PERIOD TIME  86400.      1440.0      24.000      1.0000     2.73785E-03
         TOTAL TIME 1.53792E+07 2.56320E+05  4272.0      178.00     0.48734    
1
1
                            STRESS PERIOD NO.  128, LENGTH =   86400.00    
                            -----------------------------------------------

                              NUMBER OF TIME STEPS =     1

                               MULTIPLIER FOR DELT =     1.000

                            INITIAL TIME STEP SIZE =   86400.00    

 REUSING RECH FROM LAST STRESS PERIOD

 CHD NO.   LAYER   ROW   COL    START HEAD        END HEAD         IFACE           
 ----------------------------------------------------------------------------------
      1      4      1      1       110.0           110.0           0.000    
      2      5      1      1       110.0           110.0           0.000    
      3      4      1      2       110.0           110.0           0.000    
      4      5      1      2       110.0           110.0           0.000    
      5      4      1      3       110.0           110.0           0.000    
      6      5      1      3       110.0           110.0           0.000    
      7      4      1      4       110.0           110.0           0.000    
      8      5      1      4       110.0           110.0           0.000    
      9      4      1      5       110.0           110.0           0.000    
     10      5      1      5       110.0           110.0           0.000    
     11      4      1      6       110.0           110.0           0.000    
     12      5      1      6       110.0           110.0           0.000    
     13      4      1      7       110.0           110.0           0.000    
     14      5      1      7       110.0           110.0           0.000    
     15      4      1      8       110.0           110.0           0.000    
     16      5      1      8       110.0           110.0           0.000    
     17      4      1      9       110.0           110.0           0.000    
     18      5      1      9       110.0           110.0           0.000    
     19      4      1     10       110.0           110.0           0.000    
     20      5      1     10       110.0           110.0           0.000    
     21      4      1     11       110.0           110.0           0.000    
     22      5      1     11       110.0           110.0           0.000    
     23      4      1     12       110.0           110.0           0.000    
     24      5      1     12       110.0           110.0           0.000    
     25      4      1     13       110.0           110.0           0.000    
     26      5      1     13       110.0           110.0           0.000    
     27      4      1     14       110.0           110.0           0.000    
     28      5      1     14       110.0           110.0           0.000    
     29      4      1     15       110.0           110.0           0.000    
     30      5      1     15       110.0           110.0           0.000    
     31      4      1     16       110.0           110.0           0.000    
     32      5      1     16       110.0           110.0           0.000    
     33      4      1     17       110.0           110.0           0.000    
     34      5      1     17       110.0           110.0           0.000    
     35      4     17     17       109.8           109.8           0.000    
     36      5     17     17       109.8           109.8           0.000    
     37      4     18     17       109.8           109.8           0.000    
     38      5     18     17       109.8           109.8           0.000    
     39      4     18     16       109.8           109.8           0.000    
     40      5     18     16       109.8           109.8           0.000    
     41      4     19     16       109.8           109.8           0.000    
     42      5     19     16       109.8           109.8           0.000    
     43      4     19     15       109.8           109.8           0.000    
     44      5     19     15       109.8           109.8           0.000    
     45      4     20     15       109.8           109.8           0.000    
     46      5     20     15       109.8           109.8           0.000    
     47      4     20     14       109.8           109.8           0.000    
     48      5     20     14       109.8           109.8           0.000    
     49      4     20     13       109.8           109.8           0.000    
     50      5     20     13       109.8           109.8           0.000    
     51      4     20     12       109.8           109.8           0.000    
     52      5     20     12       109.8           109.8           0.000    
     53      4     20     11       109.8           109.8           0.000    
     54      5     20     11       109.8           109.8           0.000    
     55      4     21     11       109.8           109.8           0.000    
     56      5     21     11       109.8           109.8           0.000    
     57      4     21     10       109.8           109.8           0.000    
     58      5     21     10       109.8           109.8           0.000    
     59      4     21      9       109.8           109.8           0.000    
     60      5     21      9       109.8           109.8           0.000    
     61      4     21      8       109.8           109.8           0.000    
     62      5     21      8       109.8           109.8           0.000    
     63      4     21      7       109.8           109.8           0.000    
     64      5     21      7       109.8           109.8           0.000    
     65      4     21      6       109.8           109.8           0.000    
     66      5     21      6       109.8           109.8           0.000    
     67      4     21      5       109.8           109.8           0.000    
     68      5     21      5       109.8           109.8           0.000    
     69      4     22      5       109.8           109.8           0.000    
     70      5     22      5       109.8           109.8           0.000    
     71      4     22      4       109.8           109.8           0.000    
     72      5     22      4       109.8           109.8           0.000    
     73      4     22      3       109.8           109.8           0.000    
     74      5     22      3       109.8           109.8           0.000    
     75      4     22      2       109.8           109.7           0.000    
     76      5     22      2       109.8           109.7           0.000    
     77      4     22      1       109.8           109.7           0.000    
     78      5     22      1       109.8           109.7           0.000    


     78 TIME-VARIANT SPECIFIED-HEAD CELLS

 SOLVING FOR HEAD 


     3 CALLS TO PCG ROUTINE FOR TIME STEP   1 IN STRESS PERIOD  128
    50 TOTAL ITERATIONS

 MAXIMUM HEAD CHANGE FOR EACH ITERATION (1 INDICATES THE FIRST INNER ITERATION):

    HEAD CHANGE    HEAD CHANGE    HEAD CHANGE    HEAD CHANGE    HEAD CHANGE 
   LAYER,ROW,COL  LAYER,ROW,COL  LAYER,ROW,COL  LAYER,ROW,COL  LAYER,ROW,COL
 ---------------------------------------------------------------------------
  1 -0.9347E-01  0  0.6225E-01  0 -0.5463E-01  0 -0.4275E-01  0 -0.5806E-01
   (  5, 21,  2)  (  5, 17,  1)  (  5, 16,  2)  (  5, 17,  1)  (  5, 19,  1)
  0 -0.3497E-01  0  0.2977E-01  0  0.2184E-01  0 -0.1952E-01  0  0.1131E-01
   (  5, 20,  1)  (  5, 18,  1)  (  5, 19,  1)  (  5, 18,  1)  (  5, 18,  4)
  0 -0.1060E-01  0  0.4912E-02  0  0.4962E-02  0 -0.4238E-02  0 -0.2560E-02
   (  5, 17,  3)  (  5, 15,  2)  (  5, 13,  5)  (  5, 12,  5)  (  5, 19,  3)
  0  0.2033E-02  0  0.1313E-02  0  0.1157E-02  0  0.1648E-02  0  0.8036E-03
   (  5, 18,  3)  (  5, 17,  1)  (  5, 16,  3)  (  5, 19,  3)  (  5, 17,  2)
  0 -0.4756E-03  0 -0.5102E-03  0 -0.3626E-03  0  0.2924E-03  0 -0.1616E-03
   (  5, 16,  1)  (  5, 17,  5)  (  5, 19,  2)  (  5, 20,  1)  (  5, 18,  5)
  0 -0.1308E-03  0 -0.9836E-04  0  0.4602E-04  0 -0.6987E-04  0  0.6110E-04
   (  5, 20,  3)  (  5, 14,  2)  (  5, 15,  3)  (  5, 15,  2)  (  5, 18,  1)
  1 -0.6371E-04  0  0.5458E-04  0 -0.5709E-04  0 -0.5937E-04  0 -0.5195E-04
   (  5, 17,  1)  (  5, 16,  1)  (  5, 15,  3)  (  5, 19,  2)  (  5, 12,  4)
  0  0.3777E-04  0 -0.3896E-04  0  0.2102E-04  0  0.1300E-04  0 -0.9745E-05
   (  5, 13,  3)  (  5, 19,  1)  (  5, 20,  1)  (  5, 14,  4)  (  5, 18,  2)
  0  0.7321E-05  0 -0.5890E-05  0  0.5183E-05  0 -0.2734E-05  0 -0.2300E-05
   (  5, 16,  4)  (  5, 16,  2)  (  5, 15,  1)  (  5, 19,  2)  (  5, 17,  5)
  0  0.2160E-05  0  0.1612E-05  0 -0.1351E-05  0 -0.7850E-06  1 -0.6677E-06
   (  5, 18,  1)  (  5, 14,  4)  (  5, 15,  4)  (  5, 19,  1)  (  5, 19,  3)

 MAXIMUM RESIDUAL FOR EACH ITERATION (1 INDICATES THE FIRST INNER ITERATION):

    RESIDUAL       RESIDUAL       RESIDUAL       RESIDUAL       RESIDUAL    
   LAYER,ROW,COL  LAYER,ROW,COL  LAYER,ROW,COL  LAYER,ROW,COL  LAYER,ROW,COL
 ---------------------------------------------------------------------------
  1  0.2592E-02  0  0.2324E-02  0  0.2077E-02  0  0.1748E-02  0  0.1378E-02
   (  3, 17, 17)  (  3, 17, 17)  (  3, 17, 17)  (  3, 17, 17)  (  3, 17, 17)
  0  0.1019E-02  0  0.6740E-03  0  0.4020E-03  0  0.2336E-03  0  0.1458E-03
   (  3, 17, 17)  (  3, 17, 17)  (  3, 17, 17)  (  3, 20, 11)  (  3, 20, 11)
  0  0.1110E-03  0  0.1063E-03  0  0.8631E-04  0  0.6854E-04  0  0.5331E-04
   (  4, 16, 17)  (  4, 16, 17)  (  4, 16, 17)  (  4, 16, 17)  (  4, 16, 17)
  0  0.3857E-04  0  0.3409E-04  0  0.2618E-04  0  0.1841E-04  0  0.1297E-04
   (  4, 16, 17)  (  4, 16, 17)  (  4, 16, 17)  (  4, 16, 17)  (  4, 16, 17)
  0  0.1200E-04  0  0.8396E-05  0 -0.7015E-05  0 -0.5464E-05  0 -0.3529E-05
   (  4, 16, 17)  (  4, 16, 17)  (  3, 21,  6)  (  3, 21,  6)  (  3, 21,  6)
  0 -0.2174E-05  0 -0.1182E-05  0 -0.1025E-05  0 -0.6328E-06  0 -0.4755E-06
   (  3, 21,  6)  (  3, 21,  6)  (  3, 21,  6)  (  3, 21,  6)  (  3, 21,  6)
  1 -0.5503E-06  0 -0.5120E-06  0 -0.4419E-06  0 -0.3285E-06  0  0.2553E-06
   (  3, 21,  6)  (  3, 21,  6)  (  3, 21,  6)  (  3, 21,  6)  (  4, 16, 17)
  0  0.2164E-06  0 -0.2178E-06  0 -0.1759E-06  0 -0.1305E-06  0 -0.7782E-07
   (  4, 16, 17)  (  4, 18, 14)  (  4, 18, 14)  (  4, 18, 14)  (  4, 18, 14)
  0  0.5495E-07  0  0.4921E-07  0  0.3946E-07  0  0.3269E-07  0  0.2770E-07
   (  4, 16, 17)  (  4, 16, 17)  (  4, 16, 17)  (  4, 16, 17)  (  4, 16, 17)
  0  0.2541E-07  0  0.2221E-07  0  0.1725E-07  0  0.1240E-07  1  0.1125E-07
   (  4, 16, 17)  (  4, 16, 17)  (  4, 16, 17)  (  4, 16, 17)  (  4, 16, 17)



 OUTPUT CONTROL FOR STRESS PERIOD  128   TIME STEP    1
    SAVE HEAD FOR ALL LAYERS
    SAVE DRAWDOWN FOR ALL LAYERS
    SAVE BUDGET
    PRINT BUDGET
 UBDSV1 SAVING "         STORAGE" ON UNIT   9 AT TIME STEP  1, STRESS PERIOD 128
 UBDSV2 SAVING "   CONSTANT HEAD" ON UNIT   9 AT TIME STEP  1, STRESS PERIOD 128
 UBDSV1 SAVING "FLOW RIGHT FACE " ON UNIT   9 AT TIME STEP  1, STRESS PERIOD 128
 UBDSV1 SAVING "FLOW FRONT FACE " ON UNIT   9 AT TIME STEP  1, STRESS PERIOD 128
 UBDSV1 SAVING "FLOW LOWER FACE " ON UNIT   9 AT TIME STEP  1, STRESS PERIOD 128
 UBDSV3 SAVING "        RECHARGE" ON UNIT   9 AT TIME STEP  1, STRESS PERIOD 128

 HEAD WILL BE SAVED ON UNIT   37 AT END OF TIME STEP    1, STRESS PERIOD  128

 DRAWDOWN WILL BE SAVED ON UNIT   38 AT END OF TIME STEP    1, STRESS PERIOD  128
1
  VOLUMETRIC BUDGET FOR ENTIRE MODEL AT END OF TIME STEP    1, STRESS PERIOD 128
  ------------------------------------------------------------------------------

     CUMULATIVE VOLUMES      L**3       RATES FOR THIS TIME STEP      L**3/T
     ------------------                 ------------------------

           IN:                                      IN:
           ---                                      ---
             STORAGE =       18193.4453               STORAGE =       1.1782E-03
       CONSTANT HEAD =       32150.3945         CONSTANT HEAD =       1.3532E-03
            RECHARGE =        1512.7394              RECHARGE =       9.7813E-05

            TOTAL IN =       51856.5781              TOTAL IN =       2.6292E-03

          OUT:                                     OUT:
          ----                                     ----
             STORAGE =       14976.2832               STORAGE =           0.0000
       CONSTANT HEAD =       36881.7578         CONSTANT HEAD =       2.6293E-03
            RECHARGE =           0.0000              RECHARGE =           0.0000

           TOTAL OUT =       51858.0391             TOTAL OUT =       2.6293E-03

            IN - OUT =          -1.4609              IN - OUT =      -1.1222E-07

 PERCENT DISCREPANCY =          -0.00     PERCENT DISCREPANCY =          -0.00






         TIME SUMMARY AT END OF TIME STEP    1 IN STRESS PERIOD  128
                    SECONDS     MINUTES      HOURS       DAYS        YEARS
                    -----------------------------------------------------------
   TIME STEP LENGTH  86400.      1440.0      24.000      1.0000     2.73785E-03
 STRESS PERIOD TIME  86400.      1440.0      24.000      1.0000     2.73785E-03
         TOTAL TIME 1.54656E+07 2.57760E+05  4296.0      179.00     0.49008    
1
1
                            STRESS PERIOD NO.  129, LENGTH =   259200.0    
                            -----------------------------------------------

                              NUMBER OF TIME STEPS =     3

                               MULTIPLIER FOR DELT =     1.000

                            INITIAL TIME STEP SIZE =   86400.00    

 REUSING RECH FROM LAST STRESS PERIOD

 CHD NO.   LAYER   ROW   COL    START HEAD        END HEAD         IFACE           
 ----------------------------------------------------------------------------------
      1      4      1      1       110.0           109.8           0.000    
      2      5      1      1       110.0           109.8           0.000    
      3      4      1      2       110.0           109.8           0.000    
      4      5      1      2       110.0           109.8           0.000    
      5      4      1      3       110.0           109.8           0.000    
      6      5      1      3       110.0           109.8           0.000    
      7      4      1      4       110.0           109.8           0.000    
      8      5      1      4       110.0           109.8           0.000    
      9      4      1      5       110.0           109.8           0.000    
     10      5      1      5       110.0           109.8           0.000    
     11      4      1      6       110.0           109.8           0.000    
     12      5      1      6       110.0           109.8           0.000    
     13      4      1      7       110.0           109.8           0.000    
     14      5      1      7       110.0           109.8           0.000    
     15      4      1      8       110.0           109.8           0.000    
     16      5      1      8       110.0           109.8           0.000    
     17      4      1      9       110.0           109.8           0.000    
     18      5      1      9       110.0           109.8           0.000    
     19      4      1     10       110.0           109.8           0.000    
     20      5      1     10       110.0           109.8           0.000    
     21      4      1     11       110.0           109.8           0.000    
     22      5      1     11       110.0           109.8           0.000    
     23      4      1     12       110.0           109.8           0.000    
     24      5      1     12       110.0           109.8           0.000    
     25      4      1     13       110.0           109.8           0.000    
     26      5      1     13       110.0           109.8           0.000    
     27      4      1     14       110.0           109.8           0.000    
     28      5      1     14       110.0           109.8           0.000    
     29      4      1     15       110.0           109.8           0.000    
     30      5      1     15       110.0           109.8           0.000    
     31      4      1     16       110.0           109.8           0.000    
     32      5      1     16       110.0           109.8           0.000    
     33      4      1     17       110.0           109.8           0.000    
     34      5      1     17       110.0           109.8           0.000    
     35      4     17     17       109.8           109.6           0.000    
     36      5     17     17       109.8           109.6           0.000    
     37      4     18     17       109.8           109.6           0.000    
     38      5     18     17       109.8           109.6           0.000    
     39      4     18     16       109.8           109.6           0.000    
     40      5     18     16       109.8           109.6           0.000    
     41      4     19     16       109.8           109.6           0.000    
     42      5     19     16       109.8           109.6           0.000    
     43      4     19     15       109.8           109.6           0.000    
     44      5     19     15       109.8           109.6           0.000    
     45      4     20     15       109.8           109.6           0.000    
     46      5     20     15       109.8           109.6           0.000    
     47      4     20     14       109.8           109.6           0.000    
     48      5     20     14       109.8           109.6           0.000    
     49      4     20     13       109.8           109.6           0.000    
     50      5     20     13       109.8           109.6           0.000    
     51      4     20     12       109.8           109.6           0.000    
     52      5     20     12       109.8           109.6           0.000    
     53      4     20     11       109.8           109.6           0.000    
     54      5     20     11       109.8           109.6           0.000    
     55      4     21     11       109.8           109.6           0.000    
     56      5     21     11       109.8           109.6           0.000    
     57      4     21     10       109.8           109.6           0.000    
     58      5     21     10       109.8           109.6           0.000    
     59      4     21      9       109.8           109.6           0.000    
     60      5     21      9       109.8           109.6           0.000    
     61      4     21      8       109.8           109.6           0.000    
     62      5     21      8       109.8           109.6           0.000    
     63      4     21      7       109.8           109.6           0.000    
     64      5     21      7       109.8           109.6           0.000    
     65      4     21      6       109.8           109.6           0.000    
     66      5     21      6       109.8           109.6           0.000    
     67      4     21      5       109.8           109.6           0.000    
     68      5     21      5       109.8           109.6           0.000    
     69      4     22      5       109.8           109.6           0.000    
     70      5     22      5       109.8           109.6           0.000    
     71      4     22      4       109.8           109.6           0.000    
     72      5     22      4       109.8           109.6           0.000    
     73      4     22      3       109.8           109.6           0.000    
     74      5     22      3       109.8           109.6           0.000    
     75      4     22      2       109.7           109.6           0.000    
     76      5     22      2       109.7           109.6           0.000    
     77      4     22      1       109.7           109.6           0.000    
     78      5     22      1       109.7           109.6           0.000    


     78 TIME-VARIANT SPECIFIED-HEAD CELLS

 SOLVING FOR HEAD 


     3 CALLS TO PCG ROUTINE FOR TIME STEP   1 IN STRESS PERIOD  129
    51 TOTAL ITERATIONS

 MAXIMUM HEAD CHANGE FOR EACH ITERATION (1 INDICATES THE FIRST INNER ITERATION):

    HEAD CHANGE    HEAD CHANGE    HEAD CHANGE    HEAD CHANGE    HEAD CHANGE 
   LAYER,ROW,COL  LAYER,ROW,COL  LAYER,ROW,COL  LAYER,ROW,COL  LAYER,ROW,COL
 ---------------------------------------------------------------------------
  1 -0.1408      0  0.9263E-01  0 -0.8177E-01  0 -0.6402E-01  0 -0.8601E-01
   (  5, 21,  2)  (  5, 17,  1)  (  5, 16,  2)  (  5, 17,  1)  (  5, 19,  1)
  0 -0.5152E-01  0  0.4421E-01  0  0.3240E-01  0 -0.2936E-01  0  0.1690E-01
   (  5, 20,  1)  (  5, 18,  1)  (  5, 19,  1)  (  5, 18,  1)  (  5, 18,  4)
  0 -0.1418E-01  0  0.1168E-01  0 -0.7715E-02  0 -0.6157E-02  0 -0.3833E-02
   (  5, 17,  3)  (  5, 16,  3)  (  5, 15,  1)  (  5, 12,  5)  (  5, 19,  3)
  0  0.3055E-02  0  0.1960E-02  0  0.1717E-02  0  0.2459E-02  0 -0.8155E-03
   (  5, 18,  3)  (  5, 17,  1)  (  5, 16,  3)  (  5, 19,  3)  (  5, 18,  3)
  0 -0.7917E-03  0  0.5036E-03  0 -0.5639E-03  0 -0.4774E-03  0 -0.2689E-03
   (  5, 20,  1)  (  5, 19,  1)  (  5, 16,  2)  (  5, 19,  2)  (  5, 18,  5)
  0 -0.1894E-03  0 -0.1244E-03  0 -0.1187E-03  0  0.9973E-04  0  0.5989E-04
   (  5, 20,  3)  (  5, 14,  2)  (  5, 19,  2)  (  5, 18,  1)  (  5,  6,  1)
  1 -0.1629E-03  0  0.1782E-03  0 -0.1988E-03  0 -0.9686E-04  0 -0.1160E-03
   (  5, 14,  1)  (  5, 16,  1)  (  5, 18,  3)  (  5, 14,  3)  (  5, 19,  1)
  0  0.7381E-04  0 -0.4117E-04  0  0.2344E-04  0  0.1807E-04  0 -0.1418E-04
   (  5, 18,  1)  (  5, 12,  4)  (  5, 12,  5)  (  5, 15,  4)  (  5, 16,  4)
  0  0.9932E-05  0 -0.7762E-05  0 -0.4553E-05  0  0.7367E-05  0  0.4011E-05
   (  5, 17,  4)  (  5, 20,  1)  (  5, 16,  2)  (  5, 16,  1)  (  5, 19,  4)
  0 -0.3722E-05  0 -0.2282E-05  0  0.1840E-05  0 -0.1690E-05  0 -0.9808E-06
   (  5, 20,  1)  (  5, 18,  2)  (  5, 17,  1)  (  5, 19,  1)  (  5, 14,  6)
  1 -0.7192E-06
   (  5, 17,  1)

 MAXIMUM RESIDUAL FOR EACH ITERATION (1 INDICATES THE FIRST INNER ITERATION):

    RESIDUAL       RESIDUAL       RESIDUAL       RESIDUAL       RESIDUAL    
   LAYER,ROW,COL  LAYER,ROW,COL  LAYER,ROW,COL  LAYER,ROW,COL  LAYER,ROW,COL
 ---------------------------------------------------------------------------
  1  0.3837E-02  0  0.3446E-02  0  0.3087E-02  0  0.2613E-02  0  0.2076E-02
   (  3, 17, 17)  (  3, 17, 17)  (  3, 17, 17)  (  3, 17, 17)  (  3, 17, 17)
  0  0.1550E-02  0  0.1032E-02  0  0.6149E-03  0  0.3560E-03  0  0.2216E-03
   (  3, 17, 17)  (  3, 17, 17)  (  3, 17, 17)  (  3, 20, 11)  (  3, 20, 11)
  0  0.1616E-03  0  0.1384E-03  0  0.1261E-03  0  0.1006E-03  0  0.7876E-04
   (  4, 16, 17)  (  4, 16, 17)  (  4, 16, 17)  (  4, 16, 17)  (  4, 16, 17)
  0  0.5742E-04  0  0.5094E-04  0  0.3929E-04  0  0.2793E-04  0  0.1906E-04
   (  4, 16, 17)  (  4, 16, 17)  (  4, 16, 17)  (  4, 16, 17)  (  4, 16, 17)
  0  0.1464E-04  0  0.1258E-04  0 -0.1125E-04  0 -0.8267E-05  0 -0.5331E-05
   (  4, 16, 17)  (  4, 16, 17)  (  3, 21,  6)  (  3, 21,  6)  (  3, 21,  6)
  0 -0.3287E-05  0 -0.1755E-05  0 -0.1136E-05  0 -0.7674E-06  0  0.4789E-06
   (  3, 21,  6)  (  3, 21,  6)  (  3, 21,  6)  (  3, 21,  6)  (  5, 15, 17)
  1  0.6900E-06  0 -0.7972E-06  0  0.6292E-06  0  0.3931E-06  0  0.3246E-06
   (  2, 17, 17)  (  5,  6,  1)  (  4,  6,  2)  (  5,  8,  2)  (  5,  6,  1)
  0 -0.2827E-06  0 -0.2439E-06  0  0.1940E-06  0  0.1277E-06  0  0.9640E-07
   (  4, 18, 14)  (  4, 18, 14)  (  4, 20,  2)  (  4, 20,  2)  (  4, 20,  2)
  0  0.6442E-07  0  0.4767E-07  0  0.4437E-07  0  0.3400E-07  0  0.2647E-07
   (  4, 16, 17)  (  4, 16, 17)  (  4, 16, 17)  (  4, 16, 17)  (  4, 16, 17)
  0  0.2040E-07  0  0.1660E-07  0  0.1452E-07  0 -0.9710E-08  0 -0.9355E-08
   (  4, 16, 17)  (  4, 16, 17)  (  4, 16, 17)  (  4, 20,  2)  (  4, 20,  2)
  1 -0.7895E-08
   (  4, 20,  2)



 OUTPUT CONTROL FOR STRESS PERIOD  129   TIME STEP    1
    SAVE HEAD FOR ALL LAYERS
    SAVE DRAWDOWN FOR ALL LAYERS
    SAVE BUDGET
    PRINT BUDGET
 UBDSV1 SAVING "         STORAGE" ON UNIT   9 AT TIME STEP  1, STRESS PERIOD 129
 UBDSV2 SAVING "   CONSTANT HEAD" ON UNIT   9 AT TIME STEP  1, STRESS PERIOD 129
 UBDSV1 SAVING "FLOW RIGHT FACE " ON UNIT   9 AT TIME STEP  1, STRESS PERIOD 129
 UBDSV1 SAVING "FLOW FRONT FACE " ON UNIT   9 AT TIME STEP  1, STRESS PERIOD 129
 UBDSV1 SAVING "FLOW LOWER FACE " ON UNIT   9 AT TIME STEP  1, STRESS PERIOD 129
 UBDSV3 SAVING "        RECHARGE" ON UNIT   9 AT TIME STEP  1, STRESS PERIOD 129

 HEAD WILL BE SAVED ON UNIT   37 AT END OF TIME STEP    1, STRESS PERIOD  129

 DRAWDOWN WILL BE SAVED ON UNIT   38 AT END OF TIME STEP    1, STRESS PERIOD  129
1
  VOLUMETRIC BUDGET FOR ENTIRE MODEL AT END OF TIME STEP    1, STRESS PERIOD 129
  ------------------------------------------------------------------------------

     CUMULATIVE VOLUMES      L**3       RATES FOR THIS TIME STEP      L**3/T
     ------------------                 ------------------------

           IN:                                      IN:
           ---                                      ---
             STORAGE =       18360.1523               STORAGE =       1.9295E-03
       CONSTANT HEAD =       32258.2598         CONSTANT HEAD =       1.2484E-03
            RECHARGE =        1521.1904              RECHARGE =       9.7813E-05

            TOTAL IN =       52139.6055              TOTAL IN =       3.2757E-03

          OUT:                                     OUT:
          ----                                     ----
             STORAGE =       14976.2832               STORAGE =           0.0000
       CONSTANT HEAD =       37164.7891         CONSTANT HEAD =       3.2758E-03
            RECHARGE =           0.0000              RECHARGE =           0.0000

           TOTAL OUT =       52141.0703             TOTAL OUT =       3.2758E-03

            IN - OUT =          -1.4648              IN - OUT =      -9.8487E-08

 PERCENT DISCREPANCY =          -0.00     PERCENT DISCREPANCY =          -0.00






         TIME SUMMARY AT END OF TIME STEP    1 IN STRESS PERIOD  129
                    SECONDS     MINUTES      HOURS       DAYS        YEARS
                    -----------------------------------------------------------
   TIME STEP LENGTH  86400.      1440.0      24.000      1.0000     2.73785E-03
 STRESS PERIOD TIME  86400.      1440.0      24.000      1.0000     2.73785E-03
         TOTAL TIME 1.55520E+07 2.59200E+05  4320.0      180.00     0.49281    
1

 SOLVING FOR HEAD 
     3 CALLS TO PCG ROUTINE FOR TIME STEP   2 IN STRESS PERIOD  129
    52 TOTAL ITERATIONS

 MAXIMUM HEAD CHANGE FOR EACH ITERATION (1 INDICATES THE FIRST INNER ITERATION):

    HEAD CHANGE    HEAD CHANGE    HEAD CHANGE    HEAD CHANGE    HEAD CHANGE 
   LAYER,ROW,COL  LAYER,ROW,COL  LAYER,ROW,COL  LAYER,ROW,COL  LAYER,ROW,COL
 ---------------------------------------------------------------------------
  1 -0.1447      0  0.9446E-01  0 -0.8375E-01  0 -0.6541E-01  0 -0.8658E-01
   (  5, 21,  2)  (  5, 17,  1)  (  5, 16,  2)  (  5, 17,  1)  (  5, 19,  1)
  0 -0.5252E-01  0  0.4481E-01  0  0.3270E-01  0 -0.3015E-01  0  0.1720E-01
   (  5, 20,  1)  (  5, 18,  1)  (  5, 19,  1)  (  5, 18,  1)  (  5, 18,  4)
  0 -0.1448E-01  0  0.1181E-01  0 -0.7799E-02  0 -0.6167E-02  0 -0.4211E-02
   (  5, 17,  3)  (  5, 16,  3)  (  5, 15,  1)  (  5, 12,  5)  (  5, 19,  3)
  0  0.3952E-02  0 -0.2666E-02  0  0.2132E-02  0  0.2416E-02  0 -0.8454E-03
   (  5, 18,  2)  (  5, 18,  1)  (  5, 16,  1)  (  5, 19,  3)  (  5, 18,  2)
  0  0.7910E-03  0 -0.4399E-03  0  0.4648E-03  0  0.3886E-03  0 -0.2680E-03
   (  5, 20,  3)  (  5, 17,  1)  (  5, 17,  3)  (  5, 19,  1)  (  5, 18,  1)
  0 -0.1812E-03  0  0.1429E-03  0 -0.8896E-04  0 -0.9985E-04  0  0.6233E-04
   (  5, 20,  3)  (  5, 15,  4)  (  5, 14,  2)  (  5, 19,  2)  (  5,  6,  1)
  1  0.1508E-03  0 -0.1816E-03  0  0.1973E-03  0 -0.1254E-03  0 -0.9945E-04
   (  5, 16,  1)  (  5, 16,  2)  (  5, 12,  4)  (  5, 12,  2)  (  5, 17,  1)
  0  0.8776E-04  0 -0.7747E-04  0  0.3124E-04  0 -0.1660E-04  0 -0.1223E-04
   (  5, 18,  1)  (  5, 19,  1)  (  5, 20,  1)  (  5, 20,  1)  (  5, 15,  4)
  0 -0.9647E-05  0  0.6319E-05  0 -0.9290E-05  0  0.6297E-05  0  0.4247E-05
   (  5, 15,  1)  (  5, 18,  2)  (  5, 17,  3)  (  5, 16,  1)  (  5, 19,  4)
  0 -0.4297E-05  0  0.2551E-05  0 -0.1797E-05  0  0.1967E-05  0 -0.1066E-05
   (  5, 20,  1)  (  5, 17,  1)  (  5, 19,  1)  (  5, 19,  3)  (  5, 14,  6)
  0  0.8173E-06  1 -0.7716E-06
   (  5, 17,  2)  (  5, 16,  1)

 MAXIMUM RESIDUAL FOR EACH ITERATION (1 INDICATES THE FIRST INNER ITERATION):

    RESIDUAL       RESIDUAL       RESIDUAL       RESIDUAL       RESIDUAL    
   LAYER,ROW,COL  LAYER,ROW,COL  LAYER,ROW,COL  LAYER,ROW,COL  LAYER,ROW,COL
 ---------------------------------------------------------------------------
  1  0.3831E-02  0  0.3439E-02  0  0.3079E-02  0  0.2613E-02  0  0.2084E-02
   (  3, 17, 17)  (  3, 17, 17)  (  3, 17, 17)  (  3, 17, 17)  (  3, 17, 17)
  0  0.1563E-02  0  0.1042E-02  0  0.6177E-03  0  0.3539E-03  0  0.2193E-03
   (  3, 17, 17)  (  3, 17, 17)  (  3, 17, 17)  (  3, 20, 11)  (  3, 20, 11)
  0  0.1594E-03  0  0.1363E-03  0  0.1242E-03  0  0.9899E-04  0  0.7795E-04
   (  4, 16, 17)  (  4, 16, 17)  (  4, 16, 17)  (  4, 16, 17)  (  4, 16, 17)
  0  0.6429E-04  0  0.5337E-04  0  0.3914E-04  0  0.2791E-04  0  0.1897E-04
   (  4, 16, 17)  (  4, 16, 17)  (  4, 16, 17)  (  4, 16, 17)  (  4, 16, 17)
  0  0.1323E-04  0 -0.1236E-04  0 -0.1010E-04  0 -0.8351E-05  0 -0.5416E-05
   (  4, 16, 17)  (  3, 21,  6)  (  3, 21,  6)  (  3, 21,  6)  (  3, 21,  6)
  0 -0.3338E-05  0 -0.1922E-05  0 -0.1626E-05  0 -0.7772E-06  0  0.4876E-06
   (  3, 21,  6)  (  3, 21,  6)  (  3, 21,  6)  (  3, 21,  6)  (  5, 15, 17)
  1  0.7832E-06  0  0.8967E-06  0 -0.7773E-06  0 -0.4089E-06  0  0.3567E-06
   (  2, 17, 17)  (  4,  6,  2)  (  5,  6,  1)  (  5, 14,  1)  (  5,  6,  1)
  0 -0.3016E-06  0 -0.2539E-06  0  0.2043E-06  0  0.1312E-06  0  0.9637E-07
   (  4, 18, 14)  (  4, 18, 14)  (  4, 20,  2)  (  4, 20,  2)  (  4, 20,  2)
  0  0.6700E-07  0  0.6126E-07  0  0.4643E-07  0  0.3417E-07  0  0.2550E-07
   (  4, 16, 17)  (  4, 16, 17)  (  4, 16, 17)  (  4, 16, 17)  (  4, 16, 17)
  0  0.1890E-07  0  0.1416E-07  0  0.1255E-07  0 -0.1136E-07  0 -0.1026E-07
   (  4, 16, 17)  (  4, 16, 17)  (  4, 16, 17)  (  4, 20,  2)  (  4, 20,  2)
  0 -0.9900E-08  1 -0.9219E-08
   (  4, 20,  2)  (  4, 20,  2)



 OUTPUT CONTROL FOR STRESS PERIOD  129   TIME STEP    2
    SAVE HEAD FOR ALL LAYERS
    SAVE DRAWDOWN FOR ALL LAYERS
    SAVE BUDGET
    PRINT BUDGET
 UBDSV1 SAVING "         STORAGE" ON UNIT   9 AT TIME STEP  2, STRESS PERIOD 129
 UBDSV2 SAVING "   CONSTANT HEAD" ON UNIT   9 AT TIME STEP  2, STRESS PERIOD 129
 UBDSV1 SAVING "FLOW RIGHT FACE " ON UNIT   9 AT TIME STEP  2, STRESS PERIOD 129
 UBDSV1 SAVING "FLOW FRONT FACE " ON UNIT   9 AT TIME STEP  2, STRESS PERIOD 129
 UBDSV1 SAVING "FLOW LOWER FACE " ON UNIT   9 AT TIME STEP  2, STRESS PERIOD 129
 UBDSV3 SAVING "        RECHARGE" ON UNIT   9 AT TIME STEP  2, STRESS PERIOD 129

 HEAD WILL BE SAVED ON UNIT   37 AT END OF TIME STEP    2, STRESS PERIOD  129

 DRAWDOWN WILL BE SAVED ON UNIT   38 AT END OF TIME STEP    2, STRESS PERIOD  129
1
  VOLUMETRIC BUDGET FOR ENTIRE MODEL AT END OF TIME STEP    2, STRESS PERIOD 129
  ------------------------------------------------------------------------------

     CUMULATIVE VOLUMES      L**3       RATES FOR THIS TIME STEP      L**3/T
     ------------------                 ------------------------

           IN:                                      IN:
           ---                                      ---
             STORAGE =       18546.4434               STORAGE =       2.1561E-03
       CONSTANT HEAD =       32373.8184         CONSTANT HEAD =       1.3375E-03
            RECHARGE =        1529.6415              RECHARGE =       9.7813E-05

            TOTAL IN =       52449.9023              TOTAL IN =       3.5914E-03

          OUT:                                     OUT:
          ----                                     ----
             STORAGE =       14976.2832               STORAGE =           0.0000
       CONSTANT HEAD =       37475.0977         CONSTANT HEAD =       3.5915E-03
            RECHARGE =           0.0000              RECHARGE =           0.0000

           TOTAL OUT =       52451.3828             TOTAL OUT =       3.5915E-03

            IN - OUT =          -1.4805              IN - OUT =      -1.0361E-07

 PERCENT DISCREPANCY =          -0.00     PERCENT DISCREPANCY =          -0.00






         TIME SUMMARY AT END OF TIME STEP    2 IN STRESS PERIOD  129
                    SECONDS     MINUTES      HOURS       DAYS        YEARS
                    -----------------------------------------------------------
   TIME STEP LENGTH  86400.      1440.0      24.000      1.0000     2.73785E-03
 STRESS PERIOD TIME 1.72800E+05  2880.0      48.000      2.0000     5.47570E-03
         TOTAL TIME 1.56384E+07 2.60640E+05  4344.0      181.00     0.49555    
1

 SOLVING FOR HEAD 
     3 CALLS TO PCG ROUTINE FOR TIME STEP   3 IN STRESS PERIOD  129
    52 TOTAL ITERATIONS

 MAXIMUM HEAD CHANGE FOR EACH ITERATION (1 INDICATES THE FIRST INNER ITERATION):

    HEAD CHANGE    HEAD CHANGE    HEAD CHANGE    HEAD CHANGE    HEAD CHANGE 
   LAYER,ROW,COL  LAYER,ROW,COL  LAYER,ROW,COL  LAYER,ROW,COL  LAYER,ROW,COL
 ---------------------------------------------------------------------------
  1 -0.1460      0  0.9511E-01  0 -0.8445E-01  0 -0.6584E-01  0 -0.8658E-01
   (  5, 21,  2)  (  5, 17,  1)  (  5, 16,  2)  (  5, 17,  1)  (  5, 19,  1)
  0 -0.5306E-01  0  0.4500E-01  0  0.3280E-01  0 -0.3047E-01  0  0.1721E-01
   (  5, 20,  1)  (  5, 18,  1)  (  5, 19,  1)  (  5, 18,  1)  (  5, 18,  4)
  0 -0.1381E-01  0  0.8723E-02  0  0.5069E-02  0 -0.5905E-02  0  0.3497E-02
   (  5, 17,  3)  (  5, 13,  5)  (  5, 16,  2)  (  5, 15,  3)  (  5, 19,  1)
  0 -0.3213E-02  0  0.3421E-02  0  0.1895E-02  0  0.2453E-02  0 -0.8288E-03
   (  5, 18,  1)  (  5, 18,  2)  (  5, 16,  1)  (  5, 19,  3)  (  5, 18,  3)
  0 -0.7013E-03  0 -0.5984E-03  0  0.4142E-03  0 -0.5453E-03  0 -0.2828E-03
   (  5, 17,  5)  (  5, 16,  2)  (  5, 18,  1)  (  5, 19,  2)  (  5, 18,  5)
  0 -0.1947E-03  0 -0.1737E-03  0 -0.1152E-03  0 -0.9577E-04  0  0.5982E-04
   (  5, 20,  3)  (  5, 14,  2)  (  5, 18,  1)  (  5,  6,  1)  (  5,  6,  1)
  1  0.1504E-03  0 -0.2013E-03  0  0.2114E-03  0 -0.1280E-03  0 -0.1099E-03
   (  5, 15,  2)  (  5, 17,  2)  (  5, 12,  3)  (  5, 12,  2)  (  5, 17,  1)
  0  0.9096E-04  0 -0.7942E-04  0  0.3246E-04  0  0.1752E-04  0 -0.1283E-04
   (  5, 18,  1)  (  5, 19,  1)  (  5, 20,  1)  (  5, 15,  4)  (  5, 18,  2)
  0  0.9698E-05  0  0.7086E-05  0 -0.9943E-05  0  0.6479E-05  0  0.4327E-05
   (  5, 17,  4)  (  5, 18,  2)  (  5, 17,  3)  (  5, 16,  1)  (  5, 19,  4)
  0 -0.4490E-05  0  0.3514E-05  0 -0.2339E-05  0  0.1842E-05  0 -0.1111E-05
   (  5, 20,  1)  (  5, 18,  1)  (  5, 18,  2)  (  5, 19,  3)  (  5, 14,  6)
  0 -0.9527E-06  1  0.5074E-06
   (  5, 17,  1)  (  5, 17,  1)

 MAXIMUM RESIDUAL FOR EACH ITERATION (1 INDICATES THE FIRST INNER ITERATION):

    RESIDUAL       RESIDUAL       RESIDUAL       RESIDUAL       RESIDUAL    
   LAYER,ROW,COL  LAYER,ROW,COL  LAYER,ROW,COL  LAYER,ROW,COL  LAYER,ROW,COL
 ---------------------------------------------------------------------------
  1  0.3828E-02  0  0.3436E-02  0  0.3076E-02  0  0.2611E-02  0  0.2086E-02
   (  3, 17, 17)  (  3, 17, 17)  (  3, 17, 17)  (  3, 17, 17)  (  3, 17, 17)
  0  0.1566E-02  0  0.1045E-02  0  0.6180E-03  0  0.3526E-03  0  0.2183E-03
   (  3, 17, 17)  (  3, 17, 17)  (  3, 17, 17)  (  3, 20, 11)  (  3, 20, 11)
  0  0.1584E-03  0  0.1273E-03  0  0.1200E-03  0  0.9815E-04  0  0.7749E-04
   (  4, 16, 17)  (  4, 16, 17)  (  4, 16, 17)  (  4, 16, 17)  (  4, 16, 17)
  0  0.6449E-04  0  0.5315E-04  0  0.3903E-04  0  0.2787E-04  0  0.1893E-04
   (  4, 16, 17)  (  4, 16, 17)  (  4, 16, 17)  (  4, 16, 17)  (  4, 16, 17)
  0 -0.1327E-04  0 -0.1191E-04  0 -0.1048E-04  0 -0.8405E-05  0 -0.5434E-05
   (  3, 21,  6)  (  3, 21,  6)  (  3, 21,  6)  (  3, 21,  6)  (  3, 21,  6)
  0 -0.3350E-05  0 -0.2102E-05  0 -0.1641E-05  0 -0.7783E-06  0  0.4922E-06
   (  3, 21,  6)  (  3, 21,  6)  (  3, 21,  6)  (  3, 21,  6)  (  5, 15, 17)
  1  0.8244E-06  0  0.7587E-06  0  0.8194E-06  0 -0.4563E-06  0  0.3588E-06
   (  2, 17, 17)  (  4,  6,  2)  (  4,  6,  2)  (  5, 14,  1)  (  5,  6,  1)
  0 -0.3154E-06  0 -0.2645E-06  0  0.2122E-06  0  0.1355E-06  0  0.9922E-07
   (  4, 18, 14)  (  4, 18, 14)  (  4, 20,  2)  (  4, 20,  2)  (  4, 20,  2)
  0  0.6586E-07  0  0.5908E-07  0  0.4574E-07  0  0.3381E-07  0  0.2541E-07
   (  4, 16, 17)  (  4, 16, 17)  (  4, 16, 17)  (  4, 16, 17)  (  4, 16, 17)
  0  0.1897E-07  0  0.1584E-07  0  0.1297E-07  0 -0.1131E-07  0 -0.1045E-07
   (  4, 16, 17)  (  4, 16, 17)  (  4, 16, 17)  (  4, 20,  2)  (  4, 20,  2)
  0 -0.8255E-08  1 -0.8307E-08
   (  4, 20,  2)  (  4, 20,  2)



 OUTPUT CONTROL FOR STRESS PERIOD  129   TIME STEP    3
    SAVE HEAD FOR ALL LAYERS
    SAVE DRAWDOWN FOR ALL LAYERS
    SAVE BUDGET
    PRINT BUDGET
 UBDSV1 SAVING "         STORAGE" ON UNIT   9 AT TIME STEP  3, STRESS PERIOD 129
 UBDSV2 SAVING "   CONSTANT HEAD" ON UNIT   9 AT TIME STEP  3, STRESS PERIOD 129
 UBDSV1 SAVING "FLOW RIGHT FACE " ON UNIT   9 AT TIME STEP  3, STRESS PERIOD 129
 UBDSV1 SAVING "FLOW FRONT FACE " ON UNIT   9 AT TIME STEP  3, STRESS PERIOD 129
 UBDSV1 SAVING "FLOW LOWER FACE " ON UNIT   9 AT TIME STEP  3, STRESS PERIOD 129
 UBDSV3 SAVING "        RECHARGE" ON UNIT   9 AT TIME STEP  3, STRESS PERIOD 129

 HEAD WILL BE SAVED ON UNIT   37 AT END OF TIME STEP    3, STRESS PERIOD  129

 DRAWDOWN WILL BE SAVED ON UNIT   38 AT END OF TIME STEP    3, STRESS PERIOD  129
1
  VOLUMETRIC BUDGET FOR ENTIRE MODEL AT END OF TIME STEP    3, STRESS PERIOD 129
  ------------------------------------------------------------------------------

     CUMULATIVE VOLUMES      L**3       RATES FOR THIS TIME STEP      L**3/T
     ------------------                 ------------------------

           IN:                                      IN:
           ---                                      ---
             STORAGE =       18739.1328               STORAGE =       2.2302E-03
       CONSTANT HEAD =       32502.6270         CONSTANT HEAD =       1.4908E-03
            RECHARGE =        1538.0925              RECHARGE =       9.7813E-05

            TOTAL IN =       52779.8516              TOTAL IN =       3.8189E-03

          OUT:                                     OUT:
          ----                                     ----
             STORAGE =       14976.2832               STORAGE =           0.0000
       CONSTANT HEAD =       37805.0547         CONSTANT HEAD =       3.8190E-03
            RECHARGE =           0.0000              RECHARGE =           0.0000

           TOTAL OUT =       52781.3359             TOTAL OUT =       3.8190E-03

            IN - OUT =          -1.4844              IN - OUT =      -1.0594E-07

 PERCENT DISCREPANCY =          -0.00     PERCENT DISCREPANCY =          -0.00






         TIME SUMMARY AT END OF TIME STEP    3 IN STRESS PERIOD  129
                    SECONDS     MINUTES      HOURS       DAYS        YEARS
                    -----------------------------------------------------------
   TIME STEP LENGTH  86400.      1440.0      24.000      1.0000     2.73785E-03
 STRESS PERIOD TIME 2.59200E+05  4320.0      72.000      3.0000     8.21355E-03
         TOTAL TIME 1.57248E+07 2.62080E+05  4368.0      182.00     0.49829    
1
1
                            STRESS PERIOD NO.  130, LENGTH =   86400.00    
                            -----------------------------------------------

                              NUMBER OF TIME STEPS =     1

                               MULTIPLIER FOR DELT =     1.000

                            INITIAL TIME STEP SIZE =   86400.00    

 REUSING RECH FROM LAST STRESS PERIOD

 CHD NO.   LAYER   ROW   COL    START HEAD        END HEAD         IFACE           
 ----------------------------------------------------------------------------------
      1      4      1      1       109.8           109.8           0.000    
      2      5      1      1       109.8           109.8           0.000    
      3      4      1      2       109.8           109.8           0.000    
      4      5      1      2       109.8           109.8           0.000    
      5      4      1      3       109.8           109.8           0.000    
      6      5      1      3       109.8           109.8           0.000    
      7      4      1      4       109.8           109.8           0.000    
      8      5      1      4       109.8           109.8           0.000    
      9      4      1      5       109.8           109.8           0.000    
     10      5      1      5       109.8           109.8           0.000    
     11      4      1      6       109.8           109.8           0.000    
     12      5      1      6       109.8           109.8           0.000    
     13      4      1      7       109.8           109.8           0.000    
     14      5      1      7       109.8           109.8           0.000    
     15      4      1      8       109.8           109.8           0.000    
     16      5      1      8       109.8           109.8           0.000    
     17      4      1      9       109.8           109.8           0.000    
     18      5      1      9       109.8           109.8           0.000    
     19      4      1     10       109.8           109.8           0.000    
     20      5      1     10       109.8           109.8           0.000    
     21      4      1     11       109.8           109.8           0.000    
     22      5      1     11       109.8           109.8           0.000    
     23      4      1     12       109.8           109.8           0.000    
     24      5      1     12       109.8           109.8           0.000    
     25      4      1     13       109.8           109.8           0.000    
     26      5      1     13       109.8           109.8           0.000    
     27      4      1     14       109.8           109.8           0.000    
     28      5      1     14       109.8           109.8           0.000    
     29      4      1     15       109.8           109.8           0.000    
     30      5      1     15       109.8           109.8           0.000    
     31      4      1     16       109.8           109.8           0.000    
     32      5      1     16       109.8           109.8           0.000    
     33      4      1     17       109.8           109.8           0.000    
     34      5      1     17       109.8           109.8           0.000    
     35      4     17     17       109.6           109.7           0.000    
     36      5     17     17       109.6           109.7           0.000    
     37      4     18     17       109.6           109.7           0.000    
     38      5     18     17       109.6           109.7           0.000    
     39      4     18     16       109.6           109.7           0.000    
     40      5     18     16       109.6           109.7           0.000    
     41      4     19     16       109.6           109.7           0.000    
     42      5     19     16       109.6           109.7           0.000    
     43      4     19     15       109.6           109.7           0.000    
     44      5     19     15       109.6           109.7           0.000    
     45      4     20     15       109.6           109.7           0.000    
     46      5     20     15       109.6           109.7           0.000    
     47      4     20     14       109.6           109.7           0.000    
     48      5     20     14       109.6           109.7           0.000    
     49      4     20     13       109.6           109.6           0.000    
     50      5     20     13       109.6           109.6           0.000    
     51      4     20     12       109.6           109.6           0.000    
     52      5     20     12       109.6           109.6           0.000    
     53      4     20     11       109.6           109.6           0.000    
     54      5     20     11       109.6           109.6           0.000    
     55      4     21     11       109.6           109.6           0.000    
     56      5     21     11       109.6           109.6           0.000    
     57      4     21     10       109.6           109.6           0.000    
     58      5     21     10       109.6           109.6           0.000    
     59      4     21      9       109.6           109.6           0.000    
     60      5     21      9       109.6           109.6           0.000    
     61      4     21      8       109.6           109.6           0.000    
     62      5     21      8       109.6           109.6           0.000    
     63      4     21      7       109.6           109.6           0.000    
     64      5     21      7       109.6           109.6           0.000    
     65      4     21      6       109.6           109.6           0.000    
     66      5     21      6       109.6           109.6           0.000    
     67      4     21      5       109.6           109.6           0.000    
     68      5     21      5       109.6           109.6           0.000    
     69      4     22      5       109.6           109.6           0.000    
     70      5     22      5       109.6           109.6           0.000    
     71      4     22      4       109.6           109.6           0.000    
     72      5     22      4       109.6           109.6           0.000    
     73      4     22      3       109.6           109.6           0.000    
     74      5     22      3       109.6           109.6           0.000    
     75      4     22      2       109.6           109.6           0.000    
     76      5     22      2       109.6           109.6           0.000    
     77      4     22      1       109.6           109.6           0.000    
     78      5     22      1       109.6           109.6           0.000    


     78 TIME-VARIANT SPECIFIED-HEAD CELLS

 SOLVING FOR HEAD 


     3 CALLS TO PCG ROUTINE FOR TIME STEP   1 IN STRESS PERIOD  130
    51 TOTAL ITERATIONS

 MAXIMUM HEAD CHANGE FOR EACH ITERATION (1 INDICATES THE FIRST INNER ITERATION):

    HEAD CHANGE    HEAD CHANGE    HEAD CHANGE    HEAD CHANGE    HEAD CHANGE 
   LAYER,ROW,COL  LAYER,ROW,COL  LAYER,ROW,COL  LAYER,ROW,COL  LAYER,ROW,COL
 ---------------------------------------------------------------------------
  1  0.1299      0 -0.8772E-01  0  0.7417E-01  0  0.5730E-01  0  0.8257E-01
   (  5, 21,  2)  (  5, 17,  1)  (  5, 16,  2)  (  5, 17,  1)  (  5, 19,  1)
  0  0.4757E-01  0 -0.4248E-01  0 -0.3191E-01  0  0.2699E-01  0 -0.1606E-01
   (  5, 20,  1)  (  5, 18,  1)  (  5, 19,  1)  (  5, 18,  1)  (  5, 18,  4)
  0  0.1122E-01  0  0.8205E-02  0 -0.1030E-01  0  0.6024E-02  0 -0.4143E-02
   (  5, 17,  3)  (  5, 17,  2)  (  5, 16,  3)  (  5, 12,  5)  (  5, 19,  1)
  0  0.2978E-02  0 -0.3837E-02  0 -0.1995E-02  0 -0.2394E-02  0 -0.9284E-03
   (  5, 18,  1)  (  5, 18,  2)  (  5, 16,  1)  (  5, 19,  3)  (  5, 17,  2)
  0  0.8750E-03  0 -0.7239E-03  0  0.5090E-03  0 -0.4435E-03  0 -0.2339E-03
   (  5, 16,  1)  (  5, 17,  2)  (  5, 19,  2)  (  5, 20,  1)  (  5, 20,  3)
  0  0.2198E-03  0 -0.1594E-03  0 -0.1416E-03  0  0.7526E-04  0  0.5192E-04
   (  5, 20,  3)  (  5, 19,  2)  (  5, 15,  4)  (  5,  6,  1)  (  5, 16,  2)
  1 -0.5022E-04  0 -0.5390E-04  0  0.5047E-04  0  0.3723E-04  0  0.3959E-04
   (  5, 16,  1)  (  5,  6,  1)  (  5,  6,  1)  (  5, 19,  2)  (  5, 17,  3)
  0  0.3560E-04  0 -0.2197E-04  0  0.1812E-04  0 -0.1201E-04  0  0.1089E-04
   (  5, 19,  1)  (  5, 13,  3)  (  5, 13,  4)  (  5, 12,  4)  (  5, 16,  2)
  0 -0.6794E-05  0  0.7243E-05  0 -0.5607E-05  0  0.5594E-05  0 -0.2473E-05
   (  5, 18,  2)  (  5, 15,  4)  (  5, 16,  4)  (  5, 17,  5)  (  5, 15,  5)
  0 -0.2582E-05  0  0.1659E-05  0 -0.1757E-05  0 -0.1442E-05  0 -0.9082E-06
   (  5, 19,  3)  (  5, 19,  1)  (  5, 17,  1)  (  5, 20,  1)  (  5, 14,  1)
  1  0.5767E-06
   (  5, 15,  1)

 MAXIMUM RESIDUAL FOR EACH ITERATION (1 INDICATES THE FIRST INNER ITERATION):

    RESIDUAL       RESIDUAL       RESIDUAL       RESIDUAL       RESIDUAL    
   LAYER,ROW,COL  LAYER,ROW,COL  LAYER,ROW,COL  LAYER,ROW,COL  LAYER,ROW,COL
 ---------------------------------------------------------------------------
  1 -0.4004E-02  0 -0.3615E-02  0 -0.3262E-02  0 -0.2774E-02  0 -0.2205E-02
   (  3, 17, 17)  (  3, 17, 17)  (  3, 17, 17)  (  3, 17, 17)  (  3, 17, 17)
  0 -0.1647E-02  0 -0.1102E-02  0 -0.6758E-03  0 -0.4143E-03  0 -0.2684E-03
   (  3, 17, 17)  (  3, 17, 17)  (  3, 20, 11)  (  3, 20, 11)  (  3, 20, 11)
  0 -0.1793E-03  0 -0.1562E-03  0 -0.1363E-03  0 -0.1095E-03  0 -0.8632E-04
   (  3, 20, 11)  (  4, 16, 17)  (  4, 16, 17)  (  4, 16, 17)  (  4, 16, 17)
  0 -0.7695E-04  0 -0.5910E-04  0 -0.4338E-04  0 -0.3091E-04  0 -0.2133E-04
   (  4, 16, 17)  (  4, 16, 17)  (  4, 16, 17)  (  4, 16, 17)  (  4, 16, 17)
  0 -0.1773E-04  0 -0.1482E-04  0 -0.1260E-04  0 -0.8724E-05  0 -0.5358E-05
   (  4, 16, 17)  (  4, 16, 17)  (  4, 16, 17)  (  4, 16, 17)  (  4, 16, 17)
  0 -0.3208E-05  0 -0.2418E-05  0 -0.1557E-05  0  0.8047E-06  0  0.7024E-06
   (  4, 16, 17)  (  4, 16, 17)  (  4, 16, 17)  (  3, 21,  5)  (  3, 21,  5)
  1 -0.8374E-06  0 -0.7243E-06  0 -0.5409E-06  0 -0.4762E-06  0 -0.3267E-06
   (  3, 17, 17)  (  3, 17, 17)  (  3, 17, 17)  (  3, 17, 17)  (  3, 17, 17)
  0 -0.2672E-06  0  0.2153E-06  0  0.1854E-06  0  0.1211E-06  0 -0.1039E-06
   (  4, 16, 17)  (  4, 18, 14)  (  4, 18, 14)  (  4, 18, 14)  (  4, 20,  2)
  0 -0.8407E-07  0 -0.6674E-07  0 -0.5666E-07  0 -0.4621E-07  0 -0.3277E-07
   (  4, 20,  2)  (  4, 20,  2)  (  4, 20,  2)  (  4, 20,  2)  (  4, 20,  2)
  0 -0.2443E-07  0 -0.2116E-07  0 -0.1741E-07  0 -0.1292E-07  0 -0.1074E-07
   (  3, 17, 17)  (  3, 17, 17)  (  3, 17, 17)  (  3, 17, 17)  (  3, 17, 17)
  1 -0.1069E-07
   (  3, 17, 17)



 OUTPUT CONTROL FOR STRESS PERIOD  130   TIME STEP    1
    SAVE HEAD FOR ALL LAYERS
    SAVE DRAWDOWN FOR ALL LAYERS
    SAVE BUDGET
    PRINT BUDGET
 UBDSV1 SAVING "         STORAGE" ON UNIT   9 AT TIME STEP  1, STRESS PERIOD 130
 UBDSV2 SAVING "   CONSTANT HEAD" ON UNIT   9 AT TIME STEP  1, STRESS PERIOD 130
 UBDSV1 SAVING "FLOW RIGHT FACE " ON UNIT   9 AT TIME STEP  1, STRESS PERIOD 130
 UBDSV1 SAVING "FLOW FRONT FACE " ON UNIT   9 AT TIME STEP  1, STRESS PERIOD 130
 UBDSV1 SAVING "FLOW LOWER FACE " ON UNIT   9 AT TIME STEP  1, STRESS PERIOD 130
 UBDSV3 SAVING "        RECHARGE" ON UNIT   9 AT TIME STEP  1, STRESS PERIOD 130

 HEAD WILL BE SAVED ON UNIT   37 AT END OF TIME STEP    1, STRESS PERIOD  130

 DRAWDOWN WILL BE SAVED ON UNIT   38 AT END OF TIME STEP    1, STRESS PERIOD  130
1
  VOLUMETRIC BUDGET FOR ENTIRE MODEL AT END OF TIME STEP    1, STRESS PERIOD 130
  ------------------------------------------------------------------------------

     CUMULATIVE VOLUMES      L**3       RATES FOR THIS TIME STEP      L**3/T
     ------------------                 ------------------------

           IN:                                      IN:
           ---                                      ---
             STORAGE =       18754.3613               STORAGE =       1.7626E-04
       CONSTANT HEAD =       32638.1406         CONSTANT HEAD =       1.5684E-03
            RECHARGE =        1546.5436              RECHARGE =       9.7813E-05

            TOTAL IN =       52939.0430              TOTAL IN =       1.8425E-03

          OUT:                                     OUT:
          ----                                     ----
             STORAGE =       15017.1758               STORAGE =       4.7329E-04
       CONSTANT HEAD =       37923.3633         CONSTANT HEAD =       1.3693E-03
            RECHARGE =           0.0000              RECHARGE =           0.0000

           TOTAL OUT =       52940.5391             TOTAL OUT =       1.8426E-03

            IN - OUT =          -1.4961              IN - OUT =      -9.8255E-08

 PERCENT DISCREPANCY =          -0.00     PERCENT DISCREPANCY =          -0.01






         TIME SUMMARY AT END OF TIME STEP    1 IN STRESS PERIOD  130
                    SECONDS     MINUTES      HOURS       DAYS        YEARS
                    -----------------------------------------------------------
   TIME STEP LENGTH  86400.      1440.0      24.000      1.0000     2.73785E-03
 STRESS PERIOD TIME  86400.      1440.0      24.000      1.0000     2.73785E-03
         TOTAL TIME 1.58112E+07 2.63520E+05  4392.0      183.00     0.50103    
1
1
                            STRESS PERIOD NO.  131, LENGTH =   86400.00    
                            -----------------------------------------------

                              NUMBER OF TIME STEPS =     1

                               MULTIPLIER FOR DELT =     1.000

                            INITIAL TIME STEP SIZE =   86400.00    

                 RECHARGE =   0.00000    

 CHD NO.   LAYER   ROW   COL    START HEAD        END HEAD         IFACE           
 ----------------------------------------------------------------------------------
      1      4      1      1       109.8           109.9           0.000    
      2      5      1      1       109.8           109.9           0.000    
      3      4      1      2       109.8           109.9           0.000    
      4      5      1      2       109.8           109.9           0.000    
      5      4      1      3       109.8           109.9           0.000    
      6      5      1      3       109.8           109.9           0.000    
      7      4      1      4       109.8           109.9           0.000    
      8      5      1      4       109.8           109.9           0.000    
      9      4      1      5       109.8           109.9           0.000    
     10      5      1      5       109.8           109.9           0.000    
     11      4      1      6       109.8           109.9           0.000    
     12      5      1      6       109.8           109.9           0.000    
     13      4      1      7       109.8           109.9           0.000    
     14      5      1      7       109.8           109.9           0.000    
     15      4      1      8       109.8           109.9           0.000    
     16      5      1      8       109.8           109.9           0.000    
     17      4      1      9       109.8           109.9           0.000    
     18      5      1      9       109.8           109.9           0.000    
     19      4      1     10       109.8           109.9           0.000    
     20      5      1     10       109.8           109.9           0.000    
     21      4      1     11       109.8           109.9           0.000    
     22      5      1     11       109.8           109.9           0.000    
     23      4      1     12       109.8           109.9           0.000    
     24      5      1     12       109.8           109.9           0.000    
     25      4      1     13       109.8           109.9           0.000    
     26      5      1     13       109.8           109.9           0.000    
     27      4      1     14       109.8           109.9           0.000    
     28      5      1     14       109.8           109.9           0.000    
     29      4      1     15       109.8           109.9           0.000    
     30      5      1     15       109.8           109.9           0.000    
     31      4      1     16       109.8           109.9           0.000    
     32      5      1     16       109.8           109.9           0.000    
     33      4      1     17       109.8           109.9           0.000    
     34      5      1     17       109.8           109.9           0.000    
     35      4     17     17       109.7           109.7           0.000    
     36      5     17     17       109.7           109.7           0.000    
     37      4     18     17       109.7           109.7           0.000    
     38      5     18     17       109.7           109.7           0.000    
     39      4     18     16       109.7           109.7           0.000    
     40      5     18     16       109.7           109.7           0.000    
     41      4     19     16       109.7           109.7           0.000    
     42      5     19     16       109.7           109.7           0.000    
     43      4     19     15       109.7           109.7           0.000    
     44      5     19     15       109.7           109.7           0.000    
     45      4     20     15       109.7           109.7           0.000    
     46      5     20     15       109.7           109.7           0.000    
     47      4     20     14       109.7           109.7           0.000    
     48      5     20     14       109.7           109.7           0.000    
     49      4     20     13       109.6           109.7           0.000    
     50      5     20     13       109.6           109.7           0.000    
     51      4     20     12       109.6           109.7           0.000    
     52      5     20     12       109.6           109.7           0.000    
     53      4     20     11       109.6           109.7           0.000    
     54      5     20     11       109.6           109.7           0.000    
     55      4     21     11       109.6           109.7           0.000    
     56      5     21     11       109.6           109.7           0.000    
     57      4     21     10       109.6           109.7           0.000    
     58      5     21     10       109.6           109.7           0.000    
     59      4     21      9       109.6           109.7           0.000    
     60      5     21      9       109.6           109.7           0.000    
     61      4     21      8       109.6           109.7           0.000    
     62      5     21      8       109.6           109.7           0.000    
     63      4     21      7       109.6           109.7           0.000    
     64      5     21      7       109.6           109.7           0.000    
     65      4     21      6       109.6           109.7           0.000    
     66      5     21      6       109.6           109.7           0.000    
     67      4     21      5       109.6           109.7           0.000    
     68      5     21      5       109.6           109.7           0.000    
     69      4     22      5       109.6           109.7           0.000    
     70      5     22      5       109.6           109.7           0.000    
     71      4     22      4       109.6           109.7           0.000    
     72      5     22      4       109.6           109.7           0.000    
     73      4     22      3       109.6           109.7           0.000    
     74      5     22      3       109.6           109.7           0.000    
     75      4     22      2       109.6           109.7           0.000    
     76      5     22      2       109.6           109.7           0.000    
     77      4     22      1       109.6           109.7           0.000    
     78      5     22      1       109.6           109.7           0.000    


     78 TIME-VARIANT SPECIFIED-HEAD CELLS

 SOLVING FOR HEAD 


     3 CALLS TO PCG ROUTINE FOR TIME STEP   1 IN STRESS PERIOD  131
    54 TOTAL ITERATIONS

 MAXIMUM HEAD CHANGE FOR EACH ITERATION (1 INDICATES THE FIRST INNER ITERATION):

    HEAD CHANGE    HEAD CHANGE    HEAD CHANGE    HEAD CHANGE    HEAD CHANGE 
   LAYER,ROW,COL  LAYER,ROW,COL  LAYER,ROW,COL  LAYER,ROW,COL  LAYER,ROW,COL
 ---------------------------------------------------------------------------
  1  0.1770      0 -0.1172      0  0.1018      0  0.7834E-01  0  0.1108    
   (  5, 21,  2)  (  5, 18,  1)  (  5, 16,  2)  (  5, 17,  1)  (  5, 19,  1)
  0  0.6310E-01  0 -0.5581E-01  0 -0.4148E-01  0  0.3655E-01  0 -0.2173E-01
   (  5, 20,  1)  (  5, 18,  1)  (  5, 19,  1)  (  5, 18,  1)  (  5, 18,  4)
  0  0.1996E-01  0 -0.9489E-02  0 -0.9700E-02  0  0.7972E-02  0  0.5846E-02
   (  5, 17,  3)  (  5, 16,  2)  (  5, 13,  5)  (  5, 12,  5)  (  5, 19,  3)
  0 -0.3429E-02  0 -0.3307E-02  0 -0.2547E-02  0 -0.2973E-02  0 -0.1634E-02
   (  5, 19,  1)  (  5, 18,  3)  (  5, 16,  1)  (  5, 19,  3)  (  5, 17,  2)
  0  0.9366E-03  0  0.9736E-03  0  0.7720E-03  0 -0.5345E-03  0  0.3019E-03
   (  5, 16,  1)  (  5, 17,  5)  (  5, 19,  2)  (  5, 19,  1)  (  5, 18,  5)
  0  0.2644E-03  0 -0.2291E-03  0 -0.1570E-03  0  0.1360E-03  0 -0.1033E-03
   (  5, 20,  3)  (  5, 17,  1)  (  5, 15,  4)  (  5, 16,  1)  (  5, 15,  1)
  1  0.1539E-03  0 -0.1654E-03  0  0.1832E-03  0  0.1226E-03  0  0.9727E-04
   (  5, 15,  2)  (  5, 16,  1)  (  5, 18,  3)  (  5,  6,  1)  (  5, 19,  1)
  0 -0.9030E-04  0  0.5850E-04  0 -0.4185E-04  0  0.2694E-04  0 -0.2204E-04
   (  5,  6,  1)  (  5, 19,  1)  (  5, 12,  5)  (  5, 12,  5)  (  5, 20,  1)
  0  0.1599E-04  0 -0.1400E-04  0 -0.9652E-05  0  0.9056E-05  0 -0.8034E-05
   (  5, 16,  2)  (  5, 15,  1)  (  5, 15,  5)  (  5, 17,  5)  (  5, 19,  4)
  0 -0.3880E-05  0 -0.3468E-05  0 -0.2454E-05  0 -0.2170E-05  0 -0.1696E-05
   (  5, 17,  1)  (  5, 16,  3)  (  5, 19,  2)  (  5, 15,  3)  (  5, 15,  1)
  0  0.1154E-05  0 -0.1252E-05  0 -0.9048E-06  1 -0.6670E-06
   (  5, 15,  2)  (  5, 16,  2)  (  5, 18,  1)  (  5, 20,  2)

 MAXIMUM RESIDUAL FOR EACH ITERATION (1 INDICATES THE FIRST INNER ITERATION):

    RESIDUAL       RESIDUAL       RESIDUAL       RESIDUAL       RESIDUAL    
   LAYER,ROW,COL  LAYER,ROW,COL  LAYER,ROW,COL  LAYER,ROW,COL  LAYER,ROW,COL
 ---------------------------------------------------------------------------
  1 -0.5014E-02  0 -0.4517E-02  0 -0.4067E-02  0 -0.3457E-02  0 -0.2746E-02
   (  3, 17, 17)  (  3, 17, 17)  (  3, 17, 17)  (  3, 17, 17)  (  3, 17, 17)
  0 -0.2053E-02  0 -0.1365E-02  0 -0.8205E-03  0 -0.4890E-03  0 -0.3086E-03
   (  3, 17, 17)  (  3, 17, 17)  (  3, 17, 17)  (  3, 20, 11)  (  3, 20, 11)
  0 -0.2156E-03  0 -0.2068E-03  0 -0.1689E-03  0 -0.1352E-03  0 -0.1085E-03
   (  4, 16, 17)  (  4, 16, 17)  (  4, 16, 17)  (  4, 16, 17)  (  4, 16, 17)
  0 -0.9833E-04  0 -0.7250E-04  0 -0.5265E-04  0 -0.3748E-04  0 -0.2677E-04
   (  4, 16, 17)  (  4, 16, 17)  (  4, 16, 17)  (  4, 16, 17)  (  4, 16, 17)
  0 -0.2462E-04  0 -0.1721E-04  0 -0.1315E-04  0  0.1051E-04  0  0.6822E-05
   (  4, 16, 17)  (  4, 16, 17)  (  4, 16, 17)  (  3, 21,  6)  (  3, 21,  6)
  0  0.4915E-05  0  0.3908E-05  0  0.2110E-05  0  0.1307E-05  0  0.9652E-06
   (  3, 21,  6)  (  3, 21,  6)  (  3, 21,  6)  (  3, 21,  6)  (  3, 21,  6)
  1 -0.1177E-05  0 -0.1281E-05  0 -0.8388E-06  0 -0.6619E-06  0 -0.5950E-06
   (  3, 17, 17)  (  5,  6,  1)  (  3, 17, 17)  (  3, 17, 17)  (  3, 17, 17)
  0  0.5085E-06  0  0.4747E-06  0  0.3518E-06  0  0.2316E-06  0 -0.1534E-06
   (  4, 18, 14)  (  4, 18, 14)  (  4, 18, 14)  (  4, 18, 14)  (  3, 17, 17)
  0 -0.1283E-06  0 -0.1103E-06  0 -0.9000E-07  0 -0.7014E-07  0 -0.5671E-07
   (  3, 17, 17)  (  3, 17, 17)  (  3, 17, 17)  (  3, 17, 17)  (  3, 17, 17)
  0 -0.4500E-07  0 -0.3473E-07  0 -0.3148E-07  0 -0.2261E-07  0 -0.1737E-07
   (  3, 17, 17)  (  3, 17, 17)  (  3, 17, 17)  (  3, 17, 17)  (  3, 17, 17)
  0 -0.1567E-07  0 -0.1077E-07  0 -0.7352E-08  1 -0.6918E-08
   (  3, 17, 17)  (  3, 17, 17)  (  3, 17, 17)  (  3, 17, 17)



 OUTPUT CONTROL FOR STRESS PERIOD  131   TIME STEP    1
    SAVE HEAD FOR ALL LAYERS
    SAVE DRAWDOWN FOR ALL LAYERS
    SAVE BUDGET
    PRINT BUDGET
 UBDSV1 SAVING "         STORAGE" ON UNIT   9 AT TIME STEP  1, STRESS PERIOD 131
 UBDSV2 SAVING "   CONSTANT HEAD" ON UNIT   9 AT TIME STEP  1, STRESS PERIOD 131
 UBDSV1 SAVING "FLOW RIGHT FACE " ON UNIT   9 AT TIME STEP  1, STRESS PERIOD 131
 UBDSV1 SAVING "FLOW FRONT FACE " ON UNIT   9 AT TIME STEP  1, STRESS PERIOD 131
 UBDSV1 SAVING "FLOW LOWER FACE " ON UNIT   9 AT TIME STEP  1, STRESS PERIOD 131
 UBDSV3 SAVING "        RECHARGE" ON UNIT   9 AT TIME STEP  1, STRESS PERIOD 131

 HEAD WILL BE SAVED ON UNIT   37 AT END OF TIME STEP    1, STRESS PERIOD  131

 DRAWDOWN WILL BE SAVED ON UNIT   38 AT END OF TIME STEP    1, STRESS PERIOD  131
1
  VOLUMETRIC BUDGET FOR ENTIRE MODEL AT END OF TIME STEP    1, STRESS PERIOD 131
  ------------------------------------------------------------------------------

     CUMULATIVE VOLUMES      L**3       RATES FOR THIS TIME STEP      L**3/T
     ------------------                 ------------------------

           IN:                                      IN:
           ---                                      ---
             STORAGE =       18754.3613               STORAGE =           0.0000
       CONSTANT HEAD =       32832.8164         CONSTANT HEAD =       2.2532E-03
            RECHARGE =        1546.5436              RECHARGE =           0.0000

            TOTAL IN =       53133.7227              TOTAL IN =       2.2532E-03

          OUT:                                     OUT:
          ----                                     ----
             STORAGE =       15188.2432               STORAGE =       1.9799E-03
       CONSTANT HEAD =       37946.9727         CONSTANT HEAD =       2.7324E-04
            RECHARGE =           0.0000              RECHARGE =           0.0000

           TOTAL OUT =       53135.2148             TOTAL OUT =       2.2532E-03

            IN - OUT =          -1.4922              IN - OUT =      -5.1223E-09

 PERCENT DISCREPANCY =          -0.00     PERCENT DISCREPANCY =          -0.00






         TIME SUMMARY AT END OF TIME STEP    1 IN STRESS PERIOD  131
                    SECONDS     MINUTES      HOURS       DAYS        YEARS
                    -----------------------------------------------------------
   TIME STEP LENGTH  86400.      1440.0      24.000      1.0000     2.73785E-03
 STRESS PERIOD TIME  86400.      1440.0      24.000      1.0000     2.73785E-03
         TOTAL TIME 1.58976E+07 2.64960E+05  4416.0      184.00     0.50376    
1
1
                            STRESS PERIOD NO.  132, LENGTH =   86400.00    
                            -----------------------------------------------

                              NUMBER OF TIME STEPS =     1

                               MULTIPLIER FOR DELT =     1.000

                            INITIAL TIME STEP SIZE =   86400.00    

 REUSING RECH FROM LAST STRESS PERIOD

 CHD NO.   LAYER   ROW   COL    START HEAD        END HEAD         IFACE           
 ----------------------------------------------------------------------------------
      1      4      1      1       109.9           109.9           0.000    
      2      5      1      1       109.9           109.9           0.000    
      3      4      1      2       109.9           109.9           0.000    
      4      5      1      2       109.9           109.9           0.000    
      5      4      1      3       109.9           109.9           0.000    
      6      5      1      3       109.9           109.9           0.000    
      7      4      1      4       109.9           109.9           0.000    
      8      5      1      4       109.9           109.9           0.000    
      9      4      1      5       109.9           109.9           0.000    
     10      5      1      5       109.9           109.9           0.000    
     11      4      1      6       109.9           109.9           0.000    
     12      5      1      6       109.9           109.9           0.000    
     13      4      1      7       109.9           109.9           0.000    
     14      5      1      7       109.9           109.9           0.000    
     15      4      1      8       109.9           109.9           0.000    
     16      5      1      8       109.9           109.9           0.000    
     17      4      1      9       109.9           109.9           0.000    
     18      5      1      9       109.9           109.9           0.000    
     19      4      1     10       109.9           109.9           0.000    
     20      5      1     10       109.9           109.9           0.000    
     21      4      1     11       109.9           109.9           0.000    
     22      5      1     11       109.9           109.9           0.000    
     23      4      1     12       109.9           109.9           0.000    
     24      5      1     12       109.9           109.9           0.000    
     25      4      1     13       109.9           109.9           0.000    
     26      5      1     13       109.9           109.9           0.000    
     27      4      1     14       109.9           109.9           0.000    
     28      5      1     14       109.9           109.9           0.000    
     29      4      1     15       109.9           109.9           0.000    
     30      5      1     15       109.9           109.9           0.000    
     31      4      1     16       109.9           109.9           0.000    
     32      5      1     16       109.9           109.9           0.000    
     33      4      1     17       109.9           109.9           0.000    
     34      5      1     17       109.9           109.9           0.000    
     35      4     17     17       109.7           109.7           0.000    
     36      5     17     17       109.7           109.7           0.000    
     37      4     18     17       109.7           109.7           0.000    
     38      5     18     17       109.7           109.7           0.000    
     39      4     18     16       109.7           109.7           0.000    
     40      5     18     16       109.7           109.7           0.000    
     41      4     19     16       109.7           109.7           0.000    
     42      5     19     16       109.7           109.7           0.000    
     43      4     19     15       109.7           109.7           0.000    
     44      5     19     15       109.7           109.7           0.000    
     45      4     20     15       109.7           109.7           0.000    
     46      5     20     15       109.7           109.7           0.000    
     47      4     20     14       109.7           109.7           0.000    
     48      5     20     14       109.7           109.7           0.000    
     49      4     20     13       109.7           109.7           0.000    
     50      5     20     13       109.7           109.7           0.000    
     51      4     20     12       109.7           109.7           0.000    
     52      5     20     12       109.7           109.7           0.000    
     53      4     20     11       109.7           109.7           0.000    
     54      5     20     11       109.7           109.7           0.000    
     55      4     21     11       109.7           109.7           0.000    
     56      5     21     11       109.7           109.7           0.000    
     57      4     21     10       109.7           109.7           0.000    
     58      5     21     10       109.7           109.7           0.000    
     59      4     21      9       109.7           109.7           0.000    
     60      5     21      9       109.7           109.7           0.000    
     61      4     21      8       109.7           109.7           0.000    
     62      5     21      8       109.7           109.7           0.000    
     63      4     21      7       109.7           109.7           0.000    
     64      5     21      7       109.7           109.7           0.000    
     65      4     21      6       109.7           109.7           0.000    
     66      5     21      6       109.7           109.7           0.000    
     67      4     21      5       109.7           109.7           0.000    
     68      5     21      5       109.7           109.7           0.000    
     69      4     22      5       109.7           109.7           0.000    
     70      5     22      5       109.7           109.7           0.000    
     71      4     22      4       109.7           109.6           0.000    
     72      5     22      4       109.7           109.6           0.000    
     73      4     22      3       109.7           109.6           0.000    
     74      5     22      3       109.7           109.6           0.000    
     75      4     22      2       109.7           109.6           0.000    
     76      5     22      2       109.7           109.6           0.000    
     77      4     22      1       109.7           109.6           0.000    
     78      5     22      1       109.7           109.6           0.000    


     78 TIME-VARIANT SPECIFIED-HEAD CELLS

 SOLVING FOR HEAD 


     3 CALLS TO PCG ROUTINE FOR TIME STEP   1 IN STRESS PERIOD  132
    49 TOTAL ITERATIONS

 MAXIMUM HEAD CHANGE FOR EACH ITERATION (1 INDICATES THE FIRST INNER ITERATION):

    HEAD CHANGE    HEAD CHANGE    HEAD CHANGE    HEAD CHANGE    HEAD CHANGE 
   LAYER,ROW,COL  LAYER,ROW,COL  LAYER,ROW,COL  LAYER,ROW,COL  LAYER,ROW,COL
 ---------------------------------------------------------------------------
  1 -0.1210      0  0.8169E-01  0 -0.6951E-01  0 -0.5396E-01  0 -0.7673E-01
   (  5, 21,  2)  (  5, 17,  1)  (  5, 16,  2)  (  5, 17,  1)  (  5, 19,  1)
  0 -0.4541E-01  0  0.3971E-01  0  0.2976E-01  0 -0.2561E-01  0  0.1507E-01
   (  5, 20,  1)  (  5, 18,  1)  (  5, 19,  1)  (  5, 18,  1)  (  5, 18,  4)
  0 -0.1212E-01  0  0.1110E-01  0 -0.5852E-02  0 -0.5581E-02  0 -0.3351E-02
   (  5, 17,  3)  (  5, 16,  3)  (  5, 15,  1)  (  5, 12,  5)  (  5, 19,  3)
  0 -0.2522E-02  0  0.2209E-02  0  0.1650E-02  0  0.2246E-02  0 -0.7615E-03
   (  5, 18,  1)  (  5, 18,  2)  (  5, 16,  3)  (  5, 19,  3)  (  5, 18,  2)
  0  0.6955E-03  0 -0.4386E-03  0 -0.4472E-03  0  0.3953E-03  0 -0.2200E-03
   (  5, 20,  3)  (  5, 16,  1)  (  5, 19,  2)  (  5, 19,  1)  (  5, 18,  1)
  0 -0.1932E-03  0  0.1225E-03  0 -0.7200E-04  0  0.9352E-04  0  0.5384E-04
   (  5, 20,  3)  (  5, 19,  2)  (  5, 19,  2)  (  5, 18,  1)  (  5,  6,  1)
  1 -0.4147E-04  0  0.4670E-04  0 -0.5066E-04  0  0.4610E-04  0  0.2774E-04
   (  5, 14,  1)  (  5, 16,  1)  (  5, 20,  1)  (  5, 19,  1)  (  5, 13,  2)
  0  0.3584E-04  0 -0.2607E-04  0 -0.1465E-04  0  0.1254E-04  0 -0.7559E-05
   (  5, 18,  1)  (  5, 19,  1)  (  5, 17,  4)  (  5, 18,  4)  (  5, 15,  4)
  0 -0.6316E-05  0 -0.3973E-05  0  0.3504E-05  0 -0.3358E-05  0 -0.2529E-05
   (  5, 14,  1)  (  5, 11,  4)  (  5, 15,  1)  (  5, 19,  2)  (  5, 14,  5)
  0 -0.1443E-05  0 -0.1433E-05  0  0.7497E-06  1 -0.6143E-06
   (  5, 18,  3)  (  5, 18,  2)  (  5, 18,  1)  (  5, 19,  1)

 MAXIMUM RESIDUAL FOR EACH ITERATION (1 INDICATES THE FIRST INNER ITERATION):

    RESIDUAL       RESIDUAL       RESIDUAL       RESIDUAL       RESIDUAL    
   LAYER,ROW,COL  LAYER,ROW,COL  LAYER,ROW,COL  LAYER,ROW,COL  LAYER,ROW,COL
 ---------------------------------------------------------------------------
  1  0.3764E-02  0  0.3399E-02  0  0.3065E-02  0  0.2604E-02  0  0.2072E-02
   (  3, 17, 17)  (  3, 17, 17)  (  3, 17, 17)  (  3, 17, 17)  (  3, 17, 17)
  0  0.1547E-02  0  0.1037E-02  0  0.6346E-03  0  0.3868E-03  0  0.2503E-03
   (  3, 17, 17)  (  3, 17, 17)  (  3, 17, 17)  (  3, 20, 11)  (  3, 20, 11)
  0  0.1667E-03  0  0.1353E-03  0  0.1273E-03  0  0.1025E-03  0  0.8045E-04
   (  3, 20, 11)  (  4, 16, 17)  (  4, 16, 17)  (  4, 16, 17)  (  4, 16, 17)
  0  0.6201E-04  0  0.5517E-04  0  0.4095E-04  0  0.2915E-04  0  0.2008E-04
   (  4, 16, 17)  (  4, 16, 17)  (  4, 16, 17)  (  4, 16, 17)  (  4, 16, 17)
  0  0.1452E-04  0  0.1342E-04  0  0.1032E-04  0  0.8227E-05  0  0.5110E-05
   (  4, 16, 17)  (  4, 16, 17)  (  4, 16, 17)  (  4, 16, 17)  (  4, 16, 17)
  0  0.3063E-05  0  0.1647E-05  0  0.1413E-05  0  0.7583E-06  0  0.5324E-06
   (  4, 16, 17)  (  4, 16, 17)  (  4, 16, 17)  (  4, 16, 17)  (  3, 17, 17)
  1 -0.6309E-06  0 -0.5879E-06  0 -0.4630E-06  0 -0.3232E-06  0  0.2790E-06
   (  3, 21,  5)  (  3, 21,  5)  (  3, 21,  5)  (  3, 21,  5)  (  4, 16, 17)
  0  0.2081E-06  0  0.1828E-06  0  0.1400E-06  0  0.9740E-07  0  0.8050E-07
   (  4, 16, 17)  (  4, 16, 17)  (  4, 20,  2)  (  4, 20,  2)  (  4, 20,  2)
  0  0.6405E-07  0  0.5195E-07  0  0.4158E-07  0  0.3201E-07  0  0.2254E-07
   (  4, 20,  2)  (  4, 20,  2)  (  4, 20,  2)  (  4, 20,  2)  (  4, 20,  2)
  0  0.1842E-07  0  0.1488E-07  0  0.1372E-07  1  0.1345E-07
   (  4, 16, 17)  (  4, 16, 17)  (  4, 16, 17)  (  4, 16, 17)



 OUTPUT CONTROL FOR STRESS PERIOD  132   TIME STEP    1
    SAVE HEAD FOR ALL LAYERS
    SAVE DRAWDOWN FOR ALL LAYERS
    SAVE BUDGET
    PRINT BUDGET
 UBDSV1 SAVING "         STORAGE" ON UNIT   9 AT TIME STEP  1, STRESS PERIOD 132
 UBDSV2 SAVING "   CONSTANT HEAD" ON UNIT   9 AT TIME STEP  1, STRESS PERIOD 132
 UBDSV1 SAVING "FLOW RIGHT FACE " ON UNIT   9 AT TIME STEP  1, STRESS PERIOD 132
 UBDSV1 SAVING "FLOW FRONT FACE " ON UNIT   9 AT TIME STEP  1, STRESS PERIOD 132
 UBDSV1 SAVING "FLOW LOWER FACE " ON UNIT   9 AT TIME STEP  1, STRESS PERIOD 132
 UBDSV3 SAVING "        RECHARGE" ON UNIT   9 AT TIME STEP  1, STRESS PERIOD 132

 HEAD WILL BE SAVED ON UNIT   37 AT END OF TIME STEP    1, STRESS PERIOD  132

 DRAWDOWN WILL BE SAVED ON UNIT   38 AT END OF TIME STEP    1, STRESS PERIOD  132
1
  VOLUMETRIC BUDGET FOR ENTIRE MODEL AT END OF TIME STEP    1, STRESS PERIOD 132
  ------------------------------------------------------------------------------

     CUMULATIVE VOLUMES      L**3       RATES FOR THIS TIME STEP      L**3/T
     ------------------                 ------------------------

           IN:                                      IN:
           ---                                      ---
             STORAGE =       18796.6895               STORAGE =       4.8992E-04
       CONSTANT HEAD =       32998.6367         CONSTANT HEAD =       1.9192E-03
            RECHARGE =        1546.5436              RECHARGE =           0.0000

            TOTAL IN =       53341.8711              TOTAL IN =       2.4091E-03

          OUT:                                     OUT:
          ----                                     ----
             STORAGE =       15191.7842               STORAGE =       4.0986E-05
       CONSTANT HEAD =       38151.5781         CONSTANT HEAD =       2.3681E-03
            RECHARGE =           0.0000              RECHARGE =           0.0000

           TOTAL OUT =       53343.3633             TOTAL OUT =       2.4091E-03

            IN - OUT =          -1.4922              IN - OUT =      -2.7940E-09

 PERCENT DISCREPANCY =          -0.00     PERCENT DISCREPANCY =          -0.00






         TIME SUMMARY AT END OF TIME STEP    1 IN STRESS PERIOD  132
                    SECONDS     MINUTES      HOURS       DAYS        YEARS
                    -----------------------------------------------------------
   TIME STEP LENGTH  86400.      1440.0      24.000      1.0000     2.73785E-03
 STRESS PERIOD TIME  86400.      1440.0      24.000      1.0000     2.73785E-03
         TOTAL TIME 1.59840E+07 2.66400E+05  4440.0      185.00     0.50650    
1

 HEAD AND DRAWDOWN OBSERVATIONS
 OBSERVATION       OBSERVED           SIMULATED
   NAME              VALUE              VALUE             DIFFERENCE
 --------------------------------------------------------------------
 G10_1           110.67199707        110.62615204       4.58450317383E-02
 G10_2           110.57700348        110.55985260       1.71508789062E-02
 G10_3           110.51200104        110.49327850       1.87225341797E-02
 G10_4           110.44200134        110.42432404       1.76773071289E-02
 G10_5           109.87699890        109.86748505       9.51385498047E-03
 G10_6           109.79199982        109.77364349       1.83563232422E-02
 G10_7           109.68699646        109.66962433       1.73721313477E-02
 G10_8           109.64700317        109.60370636       4.32968139648E-02
 G10_9           109.46199799        109.42573547       3.62625122070E-02
 G10_10          109.43199921        109.39495850       3.70407104492E-02
 G10_11          109.42199707        109.37787628       4.41207885742E-02
 G10_12          109.39700317        109.36060333       3.63998413086E-02
 G10_13          109.39199829        109.34995270       4.20455932617E-02
 G10_14          109.31700134        109.28499603       3.20053100586E-02
 G10_15          109.34200287        109.29962921       4.23736572266E-02
 G10_16          109.33699799        109.29814911       3.88488769531E-02
 G10_17          109.35199738        109.31724548       3.47518920898E-02
 G10_18          109.41699982        109.36912537       4.78744506836E-02
 G10_19          109.41200256        109.37568665       3.63159179688E-02
 G10_20          109.41200256        109.37576294       3.62396240234E-02
 G10_21          109.40200043        109.36970520       3.22952270508E-02
 G10_22          109.40200043        109.36386871       3.81317138672E-02
 G10_23          109.30699921        109.27678680       3.02124023438E-02
 G10_24          109.29699707        109.26805115       2.89459228516E-02
 G10_25          109.40200043        109.36821747       3.37829589844E-02
 G10_26          109.58699799        109.53264618       5.43518066406E-02
 G10_27          109.72200012        109.67485809       4.71420288086E-02
 G10_28          109.68199921        109.64707947       3.49197387695E-02
 G10_29          109.60199738        109.57829285       2.37045288086E-02
 G10_30          109.56199646        109.53129578       3.07006835938E-02
 G10_31          109.50199890        109.47422028       2.77786254883E-02
 G10_32          109.45200348        109.42165375       3.03497314453E-02
 G10_33          109.37200165        109.34181976       3.01818847656E-02
 G10_34          109.35700226        109.33047485       2.65274047852E-02
 G10_35          109.60199738        109.45512390       0.14687347412    
 G10_36          109.58200073        109.53572845       4.62722778320E-02
 G10_37          109.58200073        109.54270172       3.92990112305E-02
 G10_38          109.55699921        109.52899933       2.79998779297E-02
 G10_39          109.48699951        109.46305084       2.39486694336E-02
 G10_40          109.47699738        109.44515991       3.18374633789E-02
 G10_41          109.51200104        109.47637939       3.56216430664E-02
 G10_42          109.55699921        109.52024841       3.67507934570E-02
 G10_43          109.49700165        109.47915649       1.78451538086E-02
 G10_44          109.53199768        109.50048065       3.15170288086E-02
 G10_45          109.55699921        109.52413177       3.28674316406E-02
 G10_46          109.55200195        109.53517151       1.68304443359E-02
 G10_47          109.62699890        109.59751892       2.94799804688E-02
 G10_48          109.67700195        109.63891602       3.80859375000E-02
 G10_49          109.60199738        109.58698273       1.50146484375E-02
 G10_50          109.52700043        109.50916290       1.78375244141E-02
 G10_51          109.48699951        109.46168518       2.53143310547E-02
 G10_52          109.43699646        109.41019440       2.68020629883E-02
 G10_53          109.41699982        109.39276886       2.42309570312E-02
 G10_54          109.45200348        109.41561127       3.63922119141E-02
 G10_55          109.42199707        109.39852905       2.34680175781E-02
 G10_56          109.42199707        109.38933563       3.26614379883E-02
 G10_57          109.44699860        109.41797638       2.90222167969E-02
 G10_58          109.36199951        109.41578674      -5.37872314453E-02
 G10_59          109.46199799        109.43006134       3.19366455078E-02
 G10_60          109.47699738        109.44363403       3.33633422852E-02
 G10_61          109.45700073        109.43133545       2.56652832031E-02
 G10_62          109.44200134        109.41779327       2.42080688477E-02
 G10_63          109.39199829        109.36149597       3.05023193359E-02
 G10_64          109.41200256        109.37389374       3.81088256836E-02
 G10_65          109.41699982        109.38378143       3.32183837891E-02
 G10_66          109.43699646        109.40772247       2.92739868164E-02
 G10_67          109.46199799        109.40529633       5.67016601562E-02
 G10_68          109.51699829        109.47977448       3.72238159180E-02
 G10_69          109.52700043        109.50067902       2.63214111328E-02
 G10_70          109.56700134        109.53731537       2.96859741211E-02
 G10_71          109.67199707        109.63391876       3.80783081055E-02
 G10_72          109.79699707        109.75696564       4.00314331055E-02
 G10_73          109.83200073        109.79458618       3.74145507812E-02
 G10_74          109.83699799        109.81455231       2.24456787109E-02
 G10_75          109.83699799        109.81549072       2.15072631836E-02
 G10_76          109.85199738        109.82713318       2.48641967773E-02
 G10_77          109.84700012        109.81868744       2.83126831055E-02
 G10_78          110.26699829        110.21456909       5.24291992188E-02
 G10_79          110.31199646        110.30024719       1.17492675781E-02
 G10_80          110.43699646        110.42371368       1.32827758789E-02
 G10_81          110.41200256        110.42405701      -1.20544433594E-02
 G10_82          110.39199829        110.38570404       6.29425048828E-03
 G10_83          110.42700195        110.41069794       1.63040161133E-02
 G10_84          110.45700073        110.44210815       1.48925781250E-02
 G10_85          110.44699860        110.43292236       1.40762329102E-02
 G10_86          110.43699646        110.41688538       2.01110839844E-02
 G10_87          110.26699829        110.23484039       3.21578979492E-02
 G10_88          110.25199890        110.22234344       2.96554565430E-02
 G10_89          110.24700165        110.21750641       2.94952392578E-02
 G10_90          110.23699951        110.20922089       2.77786254883E-02
 G10_91          110.25700378        110.25223541       4.76837158203E-03
 G10_92          110.25700378        110.21829987       3.87039184570E-02
 G10_93          110.03700256        110.04023743      -3.23486328125E-03
 G10_94          109.92199707        109.92243195      -4.34875488281E-04
 G10_95          109.92199707        109.88529205       3.67050170898E-02
 G10_96          109.80200195        109.81493378      -1.29318237305E-02
 G10_97          109.87200165        109.83573151       3.62701416016E-02
 G10_98          109.94200134        109.90292358       3.90777587891E-02
 G10_99          109.96700287        109.93840027       2.86026000977E-02
 G10_100         110.01699829        109.98262024       3.43780517578E-02
 G10_101         110.18199921        110.21898651      -3.69873046875E-02
 G10_102         110.17700195        110.17177582       5.22613525391E-03
 G10_103         110.27700043        110.24503326       3.19671630859E-02
 G10_104         110.37699890        110.35710907       1.98898315430E-02
 G10_105         110.72699738        110.71863556       8.36181640625E-03
 G10_106         110.75199890        110.72551727       2.64816284180E-02
 G10_107         110.72699738        110.71772766       9.26971435547E-03
 G10_108         110.65699768        110.64302063       1.39770507812E-02
 G10_109         110.49199677        110.47099304       2.10037231445E-02
 G10_110         110.29699707        110.27727509       1.97219848633E-02
 G10_111         110.29699707        110.23847961       5.85174560547E-02
 G10_112         110.17700195        110.15520477       2.17971801758E-02
 G10_113         110.12699890        110.09233856       3.46603393555E-02
 G10_114         110.06199646        110.03730011       2.46963500977E-02
 G10_115         109.99700165        109.97375488       2.32467651367E-02
 G10_116         110.00199890        109.97093201       3.10668945312E-02
 G10_117         110.03199768        109.99803925       3.39584350586E-02
 G10_118         110.03700256        110.01214600       2.48565673828E-02
 G10_119         110.01200104        109.99594116       1.60598754883E-02
 G10_120         110.00700378        109.96128082       4.57229614258E-02
 G10_121         109.97699738        109.94369507       3.33023071289E-02
 G10_122         110.09700012        110.05960846       3.73916625977E-02
 G10_123         110.14700317        110.12164307       2.53601074219E-02
 G10_124         110.05699921        110.04267120       1.43280029297E-02
 G10_125         110.01699829        109.99446869       2.25296020508E-02
 G10_126         109.99700165        109.96825409       2.87475585938E-02
 G10_127         109.98200226        109.96054077       2.14614868164E-02
 G10_128         109.95200348        109.93109131       2.09121704102E-02
 G10_129         109.81700134        109.79399109       2.30102539062E-02
 G10_130         109.80699921        109.78206635       2.49328613281E-02
 G10_131         109.86699677        109.82228851       4.47082519531E-02
 G10_132         109.85700226        109.82550049       3.15017700195E-02
 G11_1           110.65899658        110.57376099       8.52355957031E-02
 G11_2           110.56400299        110.51691437       4.70886230469E-02
 G11_3           110.48400116        110.44529724       3.87039184570E-02
 G11_4           110.42900085        110.37740326       5.15975952148E-02
 G11_5           109.83399963        109.77853394       5.54656982422E-02
 G11_6           109.75399780        109.67047119       8.35266113281E-02
 G11_7           109.64900208        109.56608582       8.29162597656E-02
 G11_8           109.59899902        109.49385834       0.10514068604    
 G11_9           109.42900085        109.32260132       0.10639953613    
 G11_10          109.39900208        109.30020142       9.88006591797E-02
 G11_11          109.38899994        109.28397369       0.10502624512    
 G11_12          109.35900116        109.27175903       8.72421264648E-02
 G11_13          109.36399841        109.26188660       0.10211181641    
 G11_14          109.28900146        109.19172668       9.72747802734E-02
 G11_15          109.31900024        109.22084045       9.81597900391E-02
 G11_16          109.30899811        109.21898651       9.00115966797E-02
 G11_17          109.33899689        109.25357056       8.54263305664E-02
 G11_18          109.40399933        109.30167389       0.10232543945    
 G11_19          109.39399719        109.30880737       8.51898193359E-02
 G11_20          109.39399719        109.31025696       8.37402343750E-02
 G11_21          109.38899994        109.29981995       8.91799926758E-02
 G11_22          109.37899780        109.29276276       8.62350463867E-02
 G11_23          109.28399658        109.19489288       8.91036987305E-02
 G11_24          109.27400208        109.20415497       6.98471069336E-02
 G11_25          109.38899994        109.33542633       5.35736083984E-02
 G11_26          109.60399628        109.51646423       8.75320434570E-02
 G11_27          109.73899841        109.66287994       7.61184692383E-02
 G11_28          109.64900208        109.57530212       7.36999511719E-02
 G11_29          109.56900024        109.50450134       6.44989013672E-02
 G11_30          109.53399658        109.45148468       8.25119018555E-02
 G11_31          109.47399902        109.38689423       8.71047973633E-02
 G11_32          109.42400360        109.33988190       8.41217041016E-02
 G11_33          109.34400177        109.26055145       8.34503173828E-02
 G11_34          109.33399963        109.26097107       7.30285644531E-02
 G11_35          109.52400208        109.42381287       0.10018920898    
 G11_36          109.56900024        109.48863983       8.03604125977E-02
 G11_37          109.56900024        109.49255371       7.64465332031E-02
 G11_38          109.54399872        109.47355652       7.04421997070E-02
 G11_39          109.46399689        109.39839935       6.55975341797E-02
 G11_40          109.45400238        109.38111115       7.28912353516E-02
 G11_41          109.49900055        109.43137360       6.76269531250E-02
 G11_42          109.54399872        109.46809387       7.59048461914E-02
 G11_43          109.46900177        109.42408752       4.49142456055E-02
 G11_44          109.51899719        109.44977570       6.92214965820E-02
 G11_45          109.55400085        109.45924377       9.47570800781E-02
 G11_46          109.54399872        109.49922180       4.47769165039E-02
 G11_47          109.62400055        109.57225800       5.17425537109E-02
 G11_48          109.66899872        109.60079956       6.81991577148E-02
 G11_49          109.57900238        109.52449036       5.45120239258E-02
 G11_50          109.49900055        109.44154358       5.74569702148E-02
 G11_51          109.46399689        109.39010620       7.38906860352E-02
 G11_52          109.40899658        109.33409119       7.49053955078E-02
 G11_53          109.39900208        109.33399963       6.50024414062E-02
 G11_54          109.43399811        109.34833527       8.56628417969E-02
 G11_55          109.40399933        109.34149933       6.25000000000E-02
 G11_56          109.39900208        109.33532715       6.36749267578E-02
 G11_57          109.42900085        109.36598206       6.30187988281E-02
 G11_58          109.43900299        109.36725616       7.17468261719E-02
 G11_59          109.44899750        109.37633514       7.26623535156E-02
 G11_60          109.45899963        109.38759613       7.14035034180E-02
 G11_61          109.44400024        109.38034821       6.36520385742E-02
 G11_62          109.43399811        109.35906219       7.49359130859E-02
 G11_63          109.36900330        109.30078125       6.82220458984E-02
 G11_64          109.38899994        109.31805420       7.09457397461E-02
 G11_65          109.40399933        109.32680511       7.71942138672E-02
 G11_66          109.42900085        109.36325073       6.57501220703E-02
 G11_67          109.47899628        109.38234711       9.66491699219E-02
 G11_68          109.50399780        109.43533325       6.86645507812E-02
 G11_69          109.50900269        109.45410919       5.48934936523E-02
 G11_70          109.56400299        109.51254272       5.14602661133E-02
 G11_71          109.67900085        109.62184906       5.71517944336E-02
 G11_72          109.81900024        109.76717377       5.18264770508E-02
 G11_73          109.83399963        109.79047394       4.35256958008E-02
 G11_74          109.83899689        109.79923248       3.97644042969E-02
 G11_75          109.82900238        109.79253387       3.64685058594E-02
 G11_76          109.84400177        109.80204010       4.19616699219E-02
 G11_77          109.83399963        109.79880524       3.51943969727E-02
 G11_78          110.28399658        110.23551178       4.84848022461E-02
 G11_79          110.33899689        110.35320282      -1.42059326172E-02
 G11_80          110.46399689        110.47465515      -1.06582641602E-02
 G11_81          110.40899658        110.44795990      -3.89633178711E-02
 G11_82          110.39399719        110.39322662       7.70568847656E-04
 G11_83          110.42400360        110.41993713       4.06646728516E-03
 G11_84          110.45899963        110.44759369       1.14059448242E-02
 G11_85          110.44599915        110.43627930       9.71984863281E-03
 G11_86          110.43399811        110.41612244       1.78756713867E-02
 G11_87          110.22899628        110.17439270       5.46035766602E-02
 G11_88          110.25399780        110.18321228       7.07855224609E-02
 G11_89          110.23899841        110.18909454       4.99038696289E-02
 G11_90          110.22399902        110.18230438       4.16946411133E-02
 G11_91          110.24900055        110.24475098       4.24957275391E-03
 G11_92          110.22899628        110.14774323       8.12530517578E-02
 G11_93          109.98899841        109.96408844       2.49099731445E-02
 G11_94          109.88899994        109.86656952       2.24304199219E-02
 G11_95          109.88899994        109.81606293       7.29370117188E-02
 G11_96          109.82399750        109.76843262       5.55648803711E-02
 G11_97          109.85900116        109.79460907       6.43920898438E-02
 G11_98          109.93900299        109.87179565       6.72073364258E-02
 G11_99          109.94899750        109.91555023       3.34472656250E-02
 G11_100         110.01899719        109.96051788       5.84793090820E-02
 G11_101         110.17900085        110.17146301       7.53784179688E-03
 G11_102         110.16899872        110.16419983       4.79888916016E-03
 G11_103         110.28900146        110.24279785       4.62036132812E-02
 G11_104         110.40899658        110.40420532       4.79125976562E-03
 G11_105         110.75900269        110.75115967       7.84301757812E-03
 G11_106         110.74900055        110.74588776       3.11279296875E-03
 G11_107         110.73899841        110.72853088       1.04675292969E-02
 G11_108         110.63899994        110.62680817       1.21917724609E-02
 G11_109         110.46399689        110.43186188       3.21350097656E-02
 G11_110         110.25900269        110.19503021       6.39724731445E-02
 G11_111         110.18900299        110.14326477       4.57382202148E-02
 G11_112         110.14900208        110.08401489       6.49871826172E-02
 G11_113         110.09400177        110.02919769       6.48040771484E-02
 G11_114         110.03399658        109.97613525       5.78613281250E-02
 G11_115         109.97899628        109.92655945       5.24368286133E-02
 G11_116         109.98899841        109.92320251       6.57958984375E-02
 G11_117         107.01399994        109.95487213       -2.9408721924    
 G11_118         110.02899933        109.97217560       5.68237304688E-02
 G11_119         109.98899841        109.96134186       2.76565551758E-02
 G11_120         109.93900299        109.91130066       2.77023315430E-02
 G11_121         109.96900177        109.89624023       7.27615356445E-02
 G11_122         110.09899902        110.03993225       5.90667724609E-02
 G11_123         110.14900208        110.11206818       3.69338989258E-02
 G11_124         110.03900146        109.98693085       5.20706176758E-02
 G11_125         109.98899841        109.93902588       4.99725341797E-02
 G11_126         109.97899628        109.91725159       6.17446899414E-02
 G11_127         109.95899963        109.91065979       4.83398437500E-02
 G11_128         109.85900116        109.88406372      -2.50625610352E-02
 G11_129         109.73899841        109.73680115       2.19726562500E-03
 G11_130         109.78900146        109.73296356       5.60379028320E-02
 G11_131         109.85399628        109.77358246       8.04138183594E-02
 G11_132         109.83899689        109.77137756       6.76193237305E-02
 G13_1           110.64800262        110.55834198       8.96606445312E-02
 G13_2           110.55300140        110.50495911       4.80422973633E-02
 G13_3           110.47799683        110.43321991       4.47769165039E-02
 G13_4           110.42299652        110.36537933       5.76171875000E-02
 G13_5           109.84300232        109.76220703       8.07952880859E-02
 G13_6           109.76300049        109.64917755       0.11382293701    
 G13_7           109.65299988        109.54402924       0.10897064209    
 G13_8           109.61299896        109.46922302       0.14377593994    
 G13_9           109.43299866        109.29814911       0.13484954834    
 G13_10          109.40799713        109.27631378       0.13168334961    
 G13_11          109.39299774        109.26031494       0.13268280029    
 G13_12          109.37300110        109.24890137       0.12409973145    
 G13_13          109.36299896        109.23922729       0.12377166748    
 G13_14          109.29299927        109.16894531       0.12405395508    
 G13_15          109.31800079        109.19817352       0.11982727051    
 G13_16          109.31300354        109.19785309       0.11515045166    
 G13_17          109.33799744        109.23398590       0.10401153564    
 G13_18          109.40799713        109.28183746       0.12615966797    
 G13_19          109.38800049        109.29047394       9.75265502930E-02
 G13_20          109.39800262        109.29202271       0.10597991943    
 G13_21          109.38300323        109.28099823       0.10200500488    
 G13_22          109.38300323        109.27356720       0.10943603516    
 G13_23          109.28800201        109.17461395       0.11338806152    
 G13_24          109.27300262        109.18542480       8.75778198242E-02
 G13_25          109.38300323        109.32048798       6.25152587891E-02
 G13_26          109.59300232        109.51920319       7.37991333008E-02
 G13_27          109.72799683        109.66616821       6.18286132812E-02
 G13_28          109.65299988        109.55093384       0.10206604004    
 G13_29          109.57800293        109.47954559       9.84573364258E-02
 G13_30          109.53800201        109.42671204       0.11128997803    
 G13_31          109.47799683        109.36161804       0.11637878418    
 G13_32          109.42299652        109.31759644       0.10540008545    
 G13_33          109.35299683        109.23963928       0.11335754395    
 G13_34          109.33300018        109.24156189       9.14382934570E-02
 G13_35          109.51799774        109.41545105       0.10254669189    
 G13_36          109.56800079        109.47769165       9.03091430664E-02
 G13_37          109.56800079        109.47764587       9.03549194336E-02
 G13_38          109.53800201        109.45607758       8.19244384766E-02
 G13_39          109.46800232        109.37832642       8.96759033203E-02
 G13_40          109.46299744        109.36248779       0.10050964355    
 G13_41          109.49800110        109.42031860       7.76824951172E-02
 G13_42          109.54299927        109.45508575       8.79135131836E-02
 G13_43          109.47299957        109.40533447       6.76651000977E-02
 G13_44          109.51799774        109.43637848       8.16192626953E-02
 G13_45          109.55300140        109.44099426       0.11200714111    
 G13_46          109.54299927        109.49073029       5.22689819336E-02
 G13_47          109.62300110        109.56813049       5.48706054688E-02
 G13_48          109.66799927        109.59033966       7.76596069336E-02
 G13_49          109.58300018        109.50122833       8.17718505859E-02
 G13_50          109.50299835        109.41750336       8.54949951172E-02
 G13_51          109.46299744        109.36817169       9.48257446289E-02
 G13_52          109.41300201        109.31323242       9.97695922852E-02
 G13_53          109.40299988        109.31664276       8.63571166992E-02
 G13_54          109.43800354        109.32977295       0.10823059082    
 G13_55          109.40799713        109.32500458       8.29925537109E-02
 G13_56          109.39800262        109.31959534       7.84072875977E-02
 G13_57          109.43299866        109.35070801       8.22906494141E-02
 G13_58          109.43299866        109.35275269       8.02459716797E-02
 G13_59          109.44799805        109.36088562       8.71124267578E-02
 G13_60          109.46299744        109.37181091       9.11865234375E-02
 G13_61          109.44300079        109.36510468       7.78961181641E-02
 G13_62          109.51300049        109.34222412       0.17077636719    
 G13_63          109.37300110        109.28383636       8.91647338867E-02
 G13_64          109.38300323        109.30159760       8.14056396484E-02
 G13_65          109.39800262        109.31042480       8.75778198242E-02
 G13_66          109.43299866        109.34937286       8.36257934570E-02
 G13_67          109.45300293        109.37413788       7.88650512695E-02
 G13_68          109.50299835        109.42475128       7.82470703125E-02
 G13_69          109.51300049        109.44010162       7.28988647461E-02
 G13_70          109.55300140        109.50759888       4.54025268555E-02
 G13_71          109.67299652        109.62308502       4.99114990234E-02
 G13_72          109.80300140        109.77600098       2.70004272461E-02
 G13_73          109.84300232        109.78720093       5.58013916016E-02
 G13_74          109.84300232        109.79194641       5.10559082031E-02
 G13_75          109.81800079        109.78300476       3.49960327148E-02
 G13_76          109.83799744        109.79324341       4.47540283203E-02
 G13_77          109.83300018        109.79046631       4.25338745117E-02
 G13_78          110.26300049        110.24896240       1.40380859375E-02
 G13_79          110.31300354        110.37024689      -5.72433471680E-02
 G13_80          110.44799805        110.49080658      -4.28085327148E-02
 G13_81          110.40299988        110.44720459      -4.42047119141E-02
 G13_82          110.38800049        110.39015198      -2.15148925781E-03
 G13_83          110.42299652        110.41993713       3.05938720703E-03
 G13_84          110.46800232        110.44687653       2.11257934570E-02
 G13_85          110.45300293        110.43235779       2.06451416016E-02
 G13_86          110.43800354        110.41051483       2.74887084961E-02
 G13_87          110.23300171        110.15018463       8.28170776367E-02
 G13_88          110.24299622        110.17157745       7.14187622070E-02
 G13_89          110.22799683        110.17980194       4.81948852539E-02
 G13_90          110.22299957        110.17222595       5.07736206055E-02
 G13_91          110.26300049        110.24077606       2.22244262695E-02
 G13_92          110.22299957        110.12051392       0.10248565674    
 G13_93          110.00299835        109.93029022       7.27081298828E-02
 G13_94          109.89299774        109.84385681       4.91409301758E-02
 G13_95          109.89299774        109.79333496       9.96627807617E-02
 G13_96          109.82299805        109.75398254       6.90155029297E-02
 G13_97          109.85299683        109.78372192       6.92749023438E-02
 G13_98          109.93299866        109.86672974       6.62689208984E-02
 G13_99          109.95300293        109.91004181       4.29611206055E-02
 G13_100         110.00800323        109.95503235       5.29708862305E-02
 G13_101         110.17299652        110.16098022       1.20162963867E-02
 G13_102         110.16300201        110.15908813       3.91387939453E-03
 G13_103         110.27799988        110.24417114       3.38287353516E-02
 G13_104         110.39299774        110.42316437      -3.01666259766E-02
 G13_105         110.75299835        110.76205444      -9.05609130859E-03
 G13_106         110.73300171        110.74620056      -1.31988525391E-02
 G13_107         110.71299744        110.72547150      -1.24740600586E-02
 G13_108         110.64299774        110.61148834       3.15093994141E-02
 G13_109         110.46299744        110.41207123       5.09262084961E-02
 G13_110         110.26300049        110.16382599       9.91744995117E-02
 G13_111         110.14299774        110.11441803       2.85797119141E-02
 G13_112         110.15299988        110.06089020       9.21096801758E-02
 G13_113         110.09799957        110.00794220       9.00573730469E-02
 G13_114         110.03299713        109.95529175       7.77053833008E-02
 G13_115         109.97799683        109.91185760       6.61392211914E-02
 G13_116         109.98300171        109.90872192       7.42797851562E-02
 G13_117         110.01300049        109.94389343       6.91070556641E-02
 G13_118         110.02300262        109.96095276       6.20498657227E-02
 G13_119         109.99299622        109.94934082       4.36553955078E-02
 G13_120         109.92299652        109.89515686       2.78396606445E-02
 G13_121         109.96299744        109.88099670       8.20007324219E-02
 G13_122         110.08300018        110.03829193       4.47082519531E-02
 G13_123         110.14299774        110.11159515       3.14025878906E-02
 G13_124         110.03299713        109.96601105       6.69860839844E-02
 G13_125         109.99299622        109.91955566       7.34405517578E-02
 G13_126         109.97799683        109.90078735       7.72094726562E-02
 G13_127         109.96299744        109.89550018       6.74972534180E-02
 G13_128         109.91300201        109.86817932       4.48226928711E-02
 G13_129         109.76300049        109.71667480       4.63256835938E-02
 G13_130         109.79299927        109.71823120       7.47680664062E-02
 G13_131         109.85299683        109.76178741       9.12094116211E-02
 G13_132         109.83799744        109.75533295       8.26644897461E-02
 G12_1           110.65699768        110.56359863       9.33990478516E-02
 G12_2           110.56199646        110.50927734       5.27191162109E-02
 G12_3           110.48699951        110.43747711       4.95223999023E-02
 G12_4           110.42700195        110.36956787       5.74340820312E-02
 G12_5           109.84700012        109.76737213       7.96279907227E-02
 G12_6           109.76200104        109.65574646       0.10625457764    
 G12_7           109.65200043        109.55091858       0.10108184814    
 G12_8           109.60199738        109.47689056       0.12510681152    
 G12_9           109.42700195        109.30592346       0.12107849121    
 G12_10          109.40699768        109.28385925       0.12313842773    
 G12_11          109.39199829        109.26775360       0.12424468994    
 G12_12          109.37200165        109.25612640       0.11587524414    
 G12_13          109.36199951        109.24639130       0.11560821533    
 G12_14          109.29199982        109.17605591       0.11594390869    
 G12_15          109.31700134        109.20537567       0.11162567139    
 G12_16          109.31199646        109.20459747       0.10739898682    
 G12_17          109.33699799        109.24030304       9.66949462891E-02
 G12_18          109.40699768        109.28803253       0.11896514893    
 G12_19          109.39700317        109.29647827       0.10052490234    
 G12_20          109.39700317        109.29792023       9.90829467773E-02
 G12_21          109.38200378        109.28715515       9.48486328125E-02
 G12_22          109.38200378        109.27979279       0.10221099854    
 G12_23          109.28700256        109.18101501       0.10598754883    
 G12_24          109.27700043        109.19148254       8.55178833008E-02
 G12_25          109.38200378        109.32478333       5.72204589844E-02
 G12_26          109.59700012        109.51287842       8.41217041016E-02
 G12_27          109.73699951        109.66087341       7.61260986328E-02
 G12_28          109.65200043        109.56128693       9.07135009766E-02
 G12_29          109.57700348        109.48995972       8.70437622070E-02
 G12_30          109.53199768        109.43634796       9.56497192383E-02
 G12_31          109.47699738        109.37131500       0.10568237305    
 G12_32          109.42700195        109.32541656       0.10158538818    
 G12_33          109.35199738        109.24636841       0.10562896729    
 G12_34          109.33200073        109.24780273       8.41979980469E-02
 G12_35          109.51699829        109.41512299       0.10187530518    
 G12_36          109.57199860        109.47976685       9.22317504883E-02
 G12_37          109.57199860        109.48274994       8.92486572266E-02
 G12_38          109.53700256        109.46261597       7.43865966797E-02
 G12_39          109.46700287        109.38606262       8.09402465820E-02
 G12_40          109.45700073        109.36894989       8.80508422852E-02
 G12_41          109.49700165        109.42229462       7.47070312500E-02
 G12_42          109.54199982        109.45835876       8.36410522461E-02
 G12_43          109.47200012        109.41313934       5.88607788086E-02
 G12_44          109.52200317        109.43986511       8.21380615234E-02
 G12_45          109.55699921        109.44709778       0.10990142822    
 G12_46          109.54699707        109.49192047       5.50765991211E-02
 G12_47          109.62200165        109.56716919       5.48324584961E-02
 G12_48          109.66699982        109.59333801       7.36618041992E-02
 G12_49          109.58200073        109.51194000       7.00607299805E-02
 G12_50          109.50199890        109.42800903       7.39898681641E-02
 G12_51          109.46700287        109.37660217       9.04006958008E-02
 G12_52          109.41200256        109.32080078       9.12017822266E-02
 G12_53          109.40200043        109.32229614       7.97042846680E-02
 G12_54          109.43699646        109.33563232       0.10136413574    
 G12_55          109.40699768        109.33049011       7.65075683594E-02
 G12_56          109.40699768        109.32485199       8.21456909180E-02
 G12_57          109.43199921        109.35530090       7.66983032227E-02
 G12_58          109.43699646        109.35755920       7.94372558594E-02
 G12_59          109.44699860        109.36585236       8.11462402344E-02
 G12_60          109.46199799        109.37677002       8.52279663086E-02
 G12_61          109.43699646        109.37032318       6.66732788086E-02
 G12_62          109.42700195        109.34817505       7.88269042969E-02
 G12_63          109.36699677        109.28948212       7.75146484375E-02
 G12_64          109.38700104        109.30683136       8.01696777344E-02
 G12_65          109.39700317        109.31571198       8.12911987305E-02
 G12_66          109.42700195        109.35347748       7.35244750977E-02
 G12_67          109.48200226        109.37642670       0.10557556152    
 G12_68          109.50199890        109.42687988       7.51190185547E-02
 G12_69          109.51200104        109.44481659       6.71844482422E-02
 G12_70          109.56199646        109.50718689       5.48095703125E-02
 G12_71          109.67700195        109.61925507       5.77468872070E-02
 G12_72          109.79699707        109.76865387       2.83432006836E-02
 G12_73          109.81700134        109.78850555       2.84957885742E-02
 G12_74          109.82199860        109.79473114       2.72674560547E-02
 G12_75          109.82700348        109.78678131       4.02221679688E-02
 G12_76          109.84200287        109.79611206       4.58908081055E-02
 G12_77          109.83200073        109.79357910       3.84216308594E-02
 G12_78          110.26200104        110.23944855       2.25524902344E-02
 G12_79          110.33200073        110.36149597      -2.94952392578E-02
 G12_80          110.46199799        110.48258209      -2.05841064453E-02
 G12_81          110.40699768        110.44972992      -4.27322387695E-02
 G12_82          110.39700317        110.39202881       4.97436523438E-03
 G12_83          110.43199921        110.41950989       1.24893188477E-02
 G12_84          110.45700073        110.44679260       1.02081298828E-02
 G12_85          110.44400024        110.43463135       9.36889648438E-03
 G12_86          110.43199921        110.41355896       1.84402465820E-02
 G12_87          110.24199677        110.16141510       8.05816650391E-02
 G12_88          110.25199890        110.17474365       7.72552490234E-02
 G12_89          110.23699951        110.18270874       5.42907714844E-02
 G12_90          110.22699738        110.17601776       5.09796142578E-02
 G12_91          110.23699951        110.24180603      -4.80651855469E-03
 G12_92          110.23200226        110.13369751       9.83047485352E-02
 G12_93          109.99199677        109.94747925       4.45175170898E-02
 G12_94          109.90200043        109.85389709       4.81033325195E-02
 G12_95          109.89700317        109.80233002       9.46731567383E-02
 G12_96          109.82199860        109.75897980       6.30187988281E-02
 G12_97          109.85700226        109.78643799       7.05642700195E-02
 G12_98          109.93699646        109.86591339       7.10830688477E-02
 G12_99          109.95700073        109.91072845       4.62722778320E-02
 G12_100         110.01200104        109.95573425       5.62667846680E-02
 G12_101         110.17700195        110.16299438       1.40075683594E-02
 G12_102         110.16699982        110.16098785       6.01196289062E-03
 G12_103         110.28450012        110.24140930       4.30908203125E-02
 G12_104         110.40200043        110.41174316      -9.74273681641E-03
 G12_105         110.76699829        110.75609589       1.09024047852E-02
 G12_106         110.74199677        110.74736023      -5.36346435547E-03
 G12_107         110.70200348        110.72780609      -2.58026123047E-02
 G12_108         110.65699768        110.62069702       3.63006591797E-02
 G12_109         110.47200012        110.42190552       5.00946044922E-02
 G12_110         110.25700378        110.17815399       7.88497924805E-02
 G12_111         110.16699982        110.12532043       4.16793823242E-02
 G12_112         110.16699982        110.06992340       9.70764160156E-02
 G12_113         110.10199738        110.01647186       8.55255126953E-02
 G12_114         110.03700256        109.96375275       7.32498168945E-02
 G12_115         109.98200226        109.91699982       6.50024414062E-02
 G12_116         109.98699951        109.91367340       7.33261108398E-02
 G12_117         110.02200317        109.94649506       7.55081176758E-02
 G12_118         110.02700043        109.96424866       6.27517700195E-02
 G12_119         109.99700165        109.95383453       4.31671142578E-02
 G12_120         109.96700287        109.90120697       6.57958984375E-02
 G12_121         109.95700073        109.88655090       7.04498291016E-02
 G12_122         110.09700012        110.03607178       6.09283447266E-02
 G12_123         110.14700317        110.10976410       3.72390747070E-02
 G12_124         110.03700256        109.97528076       6.17218017578E-02
 G12_125         109.99700165        109.92749023       6.95114135742E-02
 G12_126         109.97699738        109.90681458       7.01828002930E-02
 G12_127         109.97200012        109.90070343       7.12966918945E-02
 G12_128         109.93699646        109.87434387       6.26525878906E-02
 G12_129         109.68699646        109.72505951      -3.80630493164E-02
 G12_130         109.78700256        109.72303009       6.39724731445E-02
 G12_131         109.85700226        109.76432800       9.26742553711E-02
 G12_132         109.84200287        109.76090240       8.11004638672E-02
 G21_1           110.63400269        110.52424622       0.10975646973    
 G21_2           110.54399872        110.46571350       7.82852172852E-02
 G21_3           110.47399902        110.38771820       8.62808227539E-02
 G21_4           110.40899658        110.32083893       8.81576538086E-02
 G21_5           109.81900024        109.67578888       0.14321136475    
 G21_6           109.74900055        109.56510162       0.18389892578    
 G21_7           109.63400269        109.46118164       0.17282104492    
 G21_8           109.58399963        109.38905334       0.19494628906    
 G21_9           109.41899872        109.22647858       0.19252014160    
 G21_10          109.39399719        109.21527100       0.17872619629    
 G21_11          109.38400269        109.20143890       0.18256378174    
 G21_12          109.36399841        109.19362640       0.17037200928    
 G21_13          109.35399628        109.18497467       0.16902160645    
 G21_14          109.27899933        109.10886383       0.17013549805    
 G21_15          109.30899811        109.15605164       0.15294647217    
 G21_16          109.29900360        109.15061951       0.14838409424    
 G21_17          109.32900238        109.20160675       0.12739562988    
 G21_18          109.39900208        109.25056458       0.14843750000    
 G21_19          109.38400269        109.24873352       0.13526916504    
 G21_20          109.38899994        109.25227356       0.13672637939    
 G21_21          109.36900330        109.23673248       0.13227081299    
 G21_22          109.37400055        109.22912598       0.14487457275    
 G21_23          109.27400208        109.12046814       0.15353393555    
 G21_24          109.26399994        109.14768982       0.11631011963    
 G21_25          109.36900330        109.32405090       4.49523925781E-02
 G21_26          109.59400177        109.55065155       4.33502197266E-02
 G21_27          109.72399902        109.69097137       3.30276489258E-02
 G21_28          109.63400269        109.49146271       0.14253997803    
 G21_29          109.56400299        109.41739655       0.14660644531    
 G21_30          109.51899719        109.36599731       0.15299987793    
 G21_31          109.46399689        109.29628754       0.16770935059    
 G21_32          109.40399933        109.25920868       0.14479064941    
 G21_33          109.33899689        109.18640900       0.15258789062    
 G21_34          109.31900024        109.19918060       0.11981964111    
 G21_35          109.54900360        109.42905426       0.11994934082    
 G21_36          109.55400085        109.46257019       9.14306640625E-02
 G21_37          109.51399994        109.44638824       6.76116943359E-02
 G21_38          109.53399658        109.41648102       0.11751556396    
 G21_39          109.45899963        109.32983398       0.12916564941    
 G21_40          109.44899750        109.31958008       0.12941741943    
 G21_41          109.48899841        109.40314484       8.58535766602E-02
 G21_42          109.52899933        109.43086243       9.81369018555E-02
 G21_43          109.46399689        109.36008453       0.10391235352    
 G21_44          109.51399994        109.41077423       0.10322570801    
 G21_45          109.55899811        109.40083313       0.15816497803    
 G21_46          109.53900146        109.47779846       6.12030029297E-02
 G21_47          109.61399841        109.56836700       4.56314086914E-02
 G21_48          109.65899658        109.57138062       8.76159667969E-02
 G21_49          109.56900024        109.44263458       0.12636566162    
 G21_50          109.48899841        109.35637665       0.13262176514    
 G21_51          109.45400238        109.31383514       0.14016723633    
 G21_52          109.39900208        109.25652313       0.14247894287    
 G21_53          109.39399719        109.27964783       0.11434936523    
 G21_54          109.42400360        109.29159546       0.13240814209    
 G21_55          109.39900208        109.28848267       0.11051940918    
 G21_56          109.39399719        109.28469849       0.10929870605    
 G21_57          109.42400360        109.32386780       0.10013580322    
 G21_58          109.42900085        109.32257843       0.10642242432    
 G21_59          109.43900299        109.32907867       0.10992431641    
 G21_60          109.45400238        109.33919525       0.11480712891    
 G21_61          109.43399811        109.33174133       0.10225677490    
 G21_62          109.40899658        109.30191803       0.10707855225    
 G21_63          109.35900116        109.24390411       0.11509704590    
 G21_64          109.38400269        109.27005005       0.11395263672    
 G21_65          109.39900208        109.27700806       0.12199401855    
 G21_66          109.42400360        109.32791138       9.60922241211E-02
 G21_67          109.45400238        109.36208344       9.19189453125E-02
 G21_68          109.49900055        109.40843964       9.05609130859E-02
 G21_69          109.50399780        109.41076660       9.32312011719E-02
 G21_70          109.55400085        109.50511932       4.88815307617E-02
 G21_71          109.66899872        109.63954163       2.94570922852E-02
 G21_72          109.79900360        109.81383514      -1.48315429688E-02
 G21_73          109.83399963        109.78556824       4.84313964844E-02
 G21_74          109.82900238        109.77935791       4.96444702148E-02
 G21_75          109.82399750        109.76420593       5.97915649414E-02
 G21_76          109.82900238        109.77745819       5.15441894531E-02
 G21_77          109.81400299        109.77469635       3.93066406250E-02
 G21_78          110.26899719        110.29916382      -3.01666259766E-02
 G21_79          110.32399750        110.42615509      -0.10215759277    
 G21_80          110.45400238        110.54546356      -9.14611816406E-02
 G21_81          110.40399933        110.44933319      -4.53338623047E-02
 G21_82          110.37400055        110.38784790      -1.38473510742E-02
 G21_83          110.42400360        110.42781067      -3.80706787109E-03
 G21_84          110.44400024        110.45264435      -8.64410400391E-03
 G21_85          110.42900085        110.42738342       1.61743164062E-03
 G21_86          110.41400146        110.40094757       1.30538940430E-02
 G21_87          110.21900177        110.08861542       0.13038635254    
 G21_88          110.23899841        110.14836884       9.06295776367E-02
 G21_89          110.22399902        110.16152954       6.24694824219E-02
 G21_90          110.20400238        110.15126038       5.27420043945E-02
 G21_91          110.23400116        110.23734283      -3.34167480469E-03
 G21_92          110.20400238        110.05017090       0.15383148193    
 G21_93          109.98100281        109.83782959       0.14317321777    
 G21_94          109.87400055        109.78565216       8.83483886719E-02
 G21_95          109.87400055        109.73794556       0.13605499268    
 G21_96          109.80899811        109.72190094       8.70971679688E-02
 G21_97          109.84400177        109.76335907       8.06427001953E-02
 G21_98          109.92900085        109.86451721       6.44836425781E-02
 G21_99          109.94899750        109.90401459       4.49829101562E-02
 G21_100         110.00399780        109.94947052       5.45272827148E-02
 G21_101         110.16899872        110.14273834       2.62603759766E-02
 G21_102         110.16400146        110.15029144       1.37100219727E-02
 G21_103         110.28150177        110.25833130       2.31704711914E-02
 G21_104         110.39900208        110.48725128      -8.82492065430E-02
 G21_105         110.73400116        110.80234528      -6.83441162109E-02
 G21_106         110.72899628        110.75238800      -2.33917236328E-02
 G21_107         110.71399689        110.72301483      -9.01794433594E-03
 G21_108         110.62400055        110.57224274       5.17578125000E-02
 G21_109         110.44400024        110.36165619       8.23440551758E-02
 G21_110         110.23400116        110.08213043       0.15187072754    
 G21_111         110.11399841        110.04318237       7.08160400391E-02
 G21_112         110.13899994        110.00292206       0.13607788086    
 G21_113         110.08399963        109.95513153       0.12886810303    
 G21_114         110.01899719        109.90387726       0.11511993408    
 G21_115         109.97399902        109.87899780       9.50012207031E-02
 G21_116         109.97399902        109.87699890       9.70001220703E-02
 G21_117         110.00399780        109.92349243       8.05053710938E-02
 G21_118         110.01399994        109.93868256       7.53173828125E-02
 G21_119         109.98400116        109.92327118       6.07299804688E-02
 G21_120         109.95400238        109.85848236       9.55200195312E-02
 G21_121         109.94400024        109.84670258       9.72976684570E-02
 G21_122         110.07900238        110.04485321       3.41491699219E-02
 G21_123         110.13899994        110.12002563       1.89743041992E-02
 G21_124         109.98400116        109.91465759       6.93435668945E-02
 G21_125         109.97399902        109.87262726       0.10137176514    
 G21_126         109.96399689        109.86300659       0.10099029541    
 G21_127         109.95400238        109.86190033       9.21020507812E-02
 G21_128         109.91899872        109.83129120       8.77075195312E-02
 G21_129         109.77400208        109.66764832       0.10635375977    
 G21_130         109.78399658        109.68634796       9.76486206055E-02
 G21_131         109.84400177        109.74097443       0.10302734375    
 G21_132         109.82399750        109.72051239       0.10348510742    

 HEAD/DRAWDOWN SUM OF SQUARED DIFFERENCE:    1.24836E+01

 Run end date and time (yyyy/mm/dd hh:mm:ss): 2016/07/07 12:14:55
 Elapsed run time:  2.000 Seconds

