                                  MODFLOW-2005     
      U.S. GEOLOGICAL SURVEY MODULAR FINITE-DIFFERENCE GROUND-WATER FLOW MODEL
                            VERSION 1.11.00 8/8/2013

 LIST FILE: Model_for_Pirna.lst
                         UNIT   11

 OPENING Model_for_Pirna.cbc
 FILE TYPE:DATA(BINARY)   UNIT    9   STATUS:REPLACE
 FORMAT:UNFORMATTED            ACCESS:STREAM              

 OPENING Model_for_Pirna.dis
 FILE TYPE:DIS   UNIT   12   STATUS:OLD    
 FORMAT:FORMATTED              ACCESS:SEQUENTIAL          

 OPENING Model_for_Pirna.bas
 FILE TYPE:BAS6   UNIT   13   STATUS:OLD    
 FORMAT:FORMATTED              ACCESS:SEQUENTIAL          

 OPENING Model_for_Pirna.oc
 FILE TYPE:OC   UNIT   39   STATUS:OLD    
 FORMAT:FORMATTED              ACCESS:SEQUENTIAL          

 OPENING Model_for_Pirna.fhd
 FILE TYPE:DATA   UNIT   37   STATUS:REPLACE
 FORMAT:FORMATTED              ACCESS:SEQUENTIAL          

 OPENING Model_for_Pirna.fdn
 FILE TYPE:DATA   UNIT   38   STATUS:REPLACE
 FORMAT:FORMATTED              ACCESS:SEQUENTIAL          

 OPENING Model_for_Pirna.pcg
 FILE TYPE:PCG   UNIT   18   STATUS:OLD    
 FORMAT:FORMATTED              ACCESS:SEQUENTIAL          

 OPENING Model_for_Pirna.lpf
 FILE TYPE:LPF   UNIT   14   STATUS:OLD    
 FORMAT:FORMATTED              ACCESS:SEQUENTIAL          

 OPENING Model_for_Pirna.chd
 FILE TYPE:CHD   UNIT   17   STATUS:OLD    
 FORMAT:FORMATTED              ACCESS:SEQUENTIAL          

 OPENING Model_for_Pirna.rch
 FILE TYPE:RCH   UNIT   24   STATUS:OLD    
 FORMAT:FORMATTED              ACCESS:SEQUENTIAL          

 OPENING Model_for_Pirna.ob_hob
 FILE TYPE:HOB   UNIT   41   STATUS:OLD    
 FORMAT:FORMATTED              ACCESS:SEQUENTIAL          

 OPENING Model_for_Pirna.hob_out
 FILE TYPE:DATA   UNIT   42   STATUS:REPLACE
 FORMAT:FORMATTED              ACCESS:SEQUENTIAL          

 BAS -- BASIC PACKAGE, VERSION 7, 5/2/2005 INPUT READ FROM UNIT   13

 MODFLOW was compiled using mixed precision
 Precision of REAL variables:           6
 Precision of DOUBLE PRECISION variables:          15

 DISCRETIZATION INPUT DATA READ FROM UNIT   12
 # Discretization File created on 07.07.2016 by ModelMuse version 3.7.1.0.
 # Upper left corner: (5424432.68948751, 5648440.1473251)
 # Lower left corner: (5424432.68948751, 5648260.1473251)
 # Upper right corner: (5424572.4672653, 5648440.1473251)
 # Lower right corner: (5424572.4672653, 5648260.1473251)
 # Grid angle (in degrees counterclockwise): 0
    5 LAYERS        45 ROWS        35 COLUMNS
  132 STRESS PERIOD(S) IN SIMULATION
 MODEL TIME UNIT IS SECONDS
 MODEL LENGTH UNIT IS METERS
  Confining bed flag for each layer:
   0   0   0   0   0



                               DELR
 READING ON UNIT   12 WITH FORMAT: (FREE)              
   4.0000       4.0000       4.0000       4.0000       4.0000    
   4.0000       4.0000       4.0000       4.0000       4.0000    
   4.0000       4.0000       4.0000       4.0000       4.0000    
   4.0000       4.0000       4.0000       4.0000       4.0000    
   4.0000       4.0000       4.0000       4.0000       4.0000    
   4.0000       4.0000       4.0000       4.0000       4.0000    
   4.0000       4.0000       4.0000       4.0000       3.7778    



                               DELC
 READING ON UNIT   12 WITH FORMAT: (FREE)              
   4.0000       4.0000       4.0000       4.0000       4.0000    
   4.0000       4.0000       4.0000       4.0000       4.0000    
   4.0000       4.0000       4.0000       4.0000       4.0000    
   4.0000       4.0000       4.0000       4.0000       4.0000    
   4.0000       4.0000       4.0000       4.0000       4.0000    
   4.0000       4.0000       4.0000       4.0000       4.0000    
   4.0000       4.0000       4.0000       4.0000       4.0000    
   4.0000       4.0000       4.0000       4.0000       4.0000    
   4.0000       4.0000       4.0000       4.0000       4.0000    



           TOP ELEVATION OF LAYER 1
 READING ON UNIT   12 WITH FORMAT: (FREE)              

            1           2           3           4           5           6           7           8           9          10
           11          12          13          14          15          16          17          18          19          20
           21          22          23          24          25          26          27          28          29          30
           31          32          33          34          35
 ........................................................................................................................
   1    119.3       119.3       119.3       119.3       119.3       119.3       119.3       119.3       119.3       119.3    
        119.3       119.3       119.3       119.3       119.3       119.3       119.3       119.3       119.3       119.3    
        119.3       119.3       119.2       119.1       119.0       118.9       118.7       118.6       118.5       118.4    
        118.3       118.1       118.0       117.9       117.8    
   2    119.3       119.3       119.3       119.3       119.3       119.3       119.3       119.3       119.3       119.3    
        119.3       119.3       119.3       119.3       119.3       119.3       119.3       119.3       119.3       119.3    
        119.3       119.2       119.1       119.0       118.9       118.8       118.6       118.5       118.4       118.3    
        118.2       118.0       117.9       117.8       117.7    
   3    119.3       119.3       119.3       119.3       119.3       119.3       119.3       119.3       119.3       119.3    
        119.3       119.3       119.3       119.3       119.3       119.3       119.3       119.3       119.3       119.3    
        119.2       119.1       119.0       118.9       118.8       118.6       118.5       118.4       118.3       118.2    
        118.1       117.9       117.8       117.7       117.6    
   4    119.3       119.3       119.3       119.3       119.3       119.3       119.3       119.3       119.3       119.3    
        119.3       119.3       119.3       119.3       119.3       119.3       119.3       119.3       119.3       119.2    
        119.1       119.0       118.9       118.8       118.7       118.5       118.4       118.3       118.2       118.1    
        117.9       117.8       117.7       117.6       117.5    
   5    119.3       119.3       119.3       119.3       119.3       119.3       119.3       119.3       119.3       119.3    
        119.3       119.3       119.3       119.3       119.3       119.3       119.3       119.3       119.3       119.1    
        119.0       118.9       118.8       118.7       118.6       118.4       118.3       118.2       118.1       118.0    
        117.8       117.7       117.6       117.5       117.4    
   6    119.3       119.3       119.3       119.3       119.3       119.3       119.3       119.3       119.3       119.3    
        119.3       119.3       119.3       119.3       119.3       119.3       119.3       119.3       119.2       119.0    
        118.9       118.8       118.7       118.6       118.4       118.3       118.2       118.1       118.0       117.9    
        117.7       117.6       117.5       117.4       117.3    
   7    119.3       119.3       119.3       119.3       119.3       119.3       119.3       119.3       119.3       119.3    
        119.3       119.3       119.3       119.3       119.3       119.3       119.2       119.1       119.0       118.9    
        118.8       118.7       118.6       118.5       118.3       118.2       118.1       118.0       117.9       117.7    
        117.6       117.5       117.4       117.3       117.2    
   8    119.3       119.3       119.3       119.3       119.3       119.3       119.3       119.3       119.3       119.3    
        119.3       119.3       119.3       119.3       119.2       119.2       119.1       119.0       118.9       118.8    
        118.7       118.6       118.5       118.3       118.2       118.1       118.0       117.9       117.8       117.6    
        117.5       117.4       117.3       117.2       117.0    
   9    119.3       119.3       119.3       119.3       119.3       119.3       119.3       119.3       119.3       119.3    
        119.3       119.3       119.2       119.2       119.2       119.1       119.0       118.9       118.8       118.7    
        118.6       118.5       118.4       118.2       118.1       118.0       117.9       117.8       117.6       117.5    
        117.4       117.3       117.2       117.1       116.9    
  10    119.4       119.4       119.4       119.4       119.3       119.3       119.3       119.3       119.3       119.2    
        119.2       119.2       119.1       119.1       119.0       118.9       118.8       118.7       118.6       118.5    
        118.4       118.4       118.3       118.1       118.0       117.9       117.8       117.7       117.5       117.4    
        117.3       117.2       117.1       117.0       116.8    
  11    119.4       119.4       119.4       119.4       119.4       119.4       119.3       119.2       119.2       119.2    
        119.1       119.1       119.1       119.0       118.9       118.8       118.7       118.6       118.5       118.4    
        118.3       118.2       118.1       118.0       117.9       117.8       117.7       117.6       117.4       117.3    
        117.2       117.1       117.0       116.8       116.7    
  12    119.5       119.5       119.5       119.5       119.4       119.4       119.4       119.3       119.2       119.1    
        119.1       119.0       118.9       118.8       118.7       118.6       118.5       118.4       118.3       118.2    
        118.1       118.0       117.9       117.9       117.8       117.7       117.6       117.4       117.3       117.2    
        117.1       117.0       116.9       116.7       116.6    
  13    119.5       119.5       119.5       119.5       119.5       119.4       119.3       119.2       119.2       119.1    
        119.0       118.9       118.8       118.7       118.6       118.5       118.4       118.3       118.2       118.1    
        118.0       117.9       117.8       117.7       117.6       117.6       117.5       117.3       117.2       117.1    
        117.0       116.9       116.7       116.6       116.5    
  14    119.5       119.5       119.5       119.5       119.3       119.1       118.9       118.8       118.7       118.6    
        118.6       118.6       118.6       118.5       118.4       118.3       118.2       118.1       118.0       117.9    
        117.8       117.7       117.6       117.5       117.4       117.4       117.4       117.2       117.1       117.0    
        116.9       116.8       116.6       116.5       116.4    
  15    119.5       119.5       119.3       119.1       118.9       118.7       118.5       118.4       118.3       118.2    
        118.2       118.2       118.3       118.2       118.2       118.1       118.0       117.9       117.8       117.7    
        117.7       117.6       117.5       117.4       117.3       117.2       117.1       117.1       117.0       116.9    
        116.8       116.7       116.5       116.4       116.3    
  16    119.3       119.1       118.9       118.7       118.5       118.3       118.1       117.9       117.8       117.8    
        117.8       117.8       117.9       117.9       117.9       117.8       117.7       117.7       117.6       117.5    
        117.4       117.3       117.2       117.2       117.1       117.0       116.9       116.9       116.9       116.8    
        116.7       116.5       116.4       116.3       116.2    
  17    118.9       118.7       118.5       118.3       118.1       117.9       117.7       117.5       117.4       117.4    
        117.4       117.4       117.5       117.5       117.5       117.5       117.5       117.4       117.3       117.2    
        117.1       117.1       117.0       116.9       116.8       116.7       116.7       116.7       116.7       116.7    
        116.6       116.4       116.3       116.2       116.1    
  18    118.5       118.3       118.1       117.9       117.7       117.5       117.3       117.1       117.0       117.0    
        117.0       117.0       117.0       117.1       117.1       117.1       117.1       117.1       117.1       117.0    
        116.9       116.8       116.7       116.6       116.6       116.5       116.5       116.5       116.4       116.4    
        116.5       116.3       116.2       116.1       116.1    
  19    118.1       117.9       117.7       117.6       117.4       117.2       117.0       117.0       116.9       116.9    
        116.8       116.7       116.6       116.7       116.7       116.7       116.7       116.8       116.8       116.7    
        116.6       116.6       116.5       116.4       116.3       116.3       116.3       116.3       116.2       116.2    
        116.2       116.2       116.1       116.1       116.1    
  20    117.8       117.6       117.4       117.2       117.0       117.0       117.0       117.0       116.9       116.8    
        116.8       116.7       116.6       116.5       116.4       116.3       116.3       116.4       116.4       116.4    
        116.4       116.3       116.2       116.1       116.1       116.1       116.1       116.0       116.0       116.0    
        116.0       116.0       116.1       116.1       116.1    
  21    117.4       117.2       117.0       117.0       117.0       117.0       117.0       117.0       116.9       116.8    
        116.7       116.6       116.6       116.5       116.4       116.3       116.2       116.2       116.1       116.0    
        116.0       116.0       116.0       115.9       115.9       115.9       115.9       115.9       115.9       116.0    
        116.0       116.0       116.1       116.1       116.1    
  22    117.0       117.0       117.0       117.0       117.0       117.0       117.0       117.0       116.9       116.8    
        116.7       116.6       116.5       116.5       116.4       116.3       116.2       116.1       116.1       116.0    
        115.9       115.8       115.7       115.7       115.8       115.8       115.8       115.9       115.9       116.0    
        116.0       116.0       116.1       116.1       116.1    
  23    117.0       117.0       117.0       117.0       117.0       117.0       117.0       116.9       116.8       116.8    
        116.7       116.6       116.5       116.4       116.4       116.3       116.2       116.1       116.0       116.0    
        115.9       115.8       115.7       115.7       115.8       115.8       115.8       115.9       115.9       115.9    
        116.0       116.0       116.1       116.1       116.1    
  24    117.0       117.0       117.0       117.0       117.0       117.0       117.0       116.9       116.8       116.7    
        116.7       116.6       116.5       116.4       116.3       116.3       116.2       116.1       116.0       115.9    
        115.8       115.8       115.7       115.7       115.8       115.8       115.8       115.9       115.9       115.9    
        116.0       116.0       116.0       116.1       116.1    
  25    117.0       117.0       117.0       117.0       117.0       117.0       117.0       116.9       116.8       116.7    
        116.6       116.6       116.5       116.4       116.3       116.2       116.2       116.1       116.0       115.9    
        115.8       115.7       115.7       115.7       115.7       115.8       115.8       115.9       115.9       115.9    
        116.0       116.0       116.0       116.1       116.1    
  26    117.0       117.0       117.0       117.0       117.0       117.0       116.9       116.9       116.8       116.7    
        116.6       116.5       116.5       116.4       116.3       116.2       116.1       116.0       116.0       115.9    
        115.8       115.7       115.7       115.7       115.7       115.8       115.8       115.8       115.9       115.9    
        116.0       116.0       116.0       116.1       116.1    
  27    117.0       117.0       117.0       117.0       117.0       117.0       116.9       116.8       116.8       116.7    
        116.6       116.5       116.4       116.4       116.3       116.2       116.1       116.0       115.9       115.9    
        115.8       115.7       115.7       115.7       115.7       115.8       115.8       115.8       115.9       115.9    
        115.9       116.0       116.0       116.1       116.1    
  28    117.0       117.0       117.0       117.0       117.0       117.0       116.9       116.8       116.7       116.7    
        116.6       116.5       116.4       116.3       116.2       116.2       116.1       116.0       115.9       115.8    
        115.8       115.7       115.7       115.7       115.7       115.8       115.8       115.8       115.9       115.9    
        115.9       116.0       116.0       116.0       116.1    
  29    117.0       117.0       117.0       117.0       117.0       117.0       116.9       116.8       116.7       116.6    
        116.6       116.5       116.4       116.3       116.2       116.1       116.1       116.0       115.9       115.8    
        115.7       115.7       115.7       115.7       115.7       115.7       115.8       115.8       115.9       115.9    
        115.9       116.0       116.0       116.0       116.1    
  30    117.0       117.0       117.0       117.0       117.0       116.9       116.9       116.8       116.7       116.6    
        116.5       116.4       116.4       116.3       116.2       116.1       116.0       116.0       115.9       115.8    
        115.7       115.7       115.7       115.7       115.7       115.7       115.8       115.8       115.8       115.9    
        115.9       116.0       116.0       116.0       116.1    
  31    117.0       117.0       117.0       117.0       117.0       116.9       116.8       116.7       116.7       116.6    
        116.5       116.4       116.3       116.3       116.2       116.1       116.0       115.9       115.9       115.8    
        115.7       115.7       115.7       115.7       115.7       115.7       115.8       115.8       115.8       115.9    
        115.9       115.9       116.0       116.0       116.1    
  32    117.0       117.0       117.0       117.0       117.0       116.9       116.8       116.7       116.6       116.6    
        116.5       116.4       116.3       116.2       116.2       116.1       116.0       115.9       115.8       115.8    
        115.7       115.7       115.7       115.7       115.7       115.7       115.8       115.8       115.8       115.9    
        115.9       115.9       116.0       116.0       116.0    
  33    117.0       117.0       117.0       117.0       116.9       116.9       116.8       116.7       116.6       116.5    
        116.5       116.4       116.3       116.2       116.1       116.1       116.0       115.9       115.8       115.7    
        115.7       115.7       115.7       115.7       115.7       115.7       115.7       115.8       115.8       115.9    
        115.9       115.9       116.0       116.0       116.0    
  34    117.0       117.0       117.0       117.0       116.9       116.8       116.8       116.7       116.6       116.5    
        116.4       116.4       116.3       116.2       116.1       116.0       115.9       115.9       115.8       115.7    
        115.7       115.7       115.7       115.7       115.7       115.7       115.7       115.8       115.8       115.8    
        115.9       115.9       116.0       116.0       116.0    
  35    117.0       117.0       117.0       117.0       116.9       116.8       116.7       116.7       116.6       116.5    
        116.4       116.3       116.3       116.2       116.1       116.0       115.9       115.8       115.8       115.7    
        115.7       115.7       115.7       115.7       115.7       115.7       115.7       115.8       115.8       115.8    
        115.9       115.9       115.9       116.0       116.0    
  36    117.0       117.0       117.0       117.0       116.9       116.8       116.7       116.6       116.6       116.5    
        116.4       116.3       116.2       116.1       116.1       116.0       115.9       115.8       115.7       115.7    
        115.7       115.7       115.7       115.7       115.7       115.7       115.7       115.8       115.8       115.8    
        115.9       115.9       115.9       116.0       116.0    
  37    117.0       117.0       117.0       116.9       116.9       116.8       116.7       116.6       116.5       116.5    
        116.4       116.3       116.2       116.1       116.0       116.0       115.9       115.8       115.7       115.7    
        115.7       115.7       115.7       115.7       115.7       115.7       115.7       115.7       115.8       115.8    
        115.9       115.9       115.9       116.0       116.0    
  38    117.0       117.0       117.0       116.9       116.8       116.8       116.7       116.6       116.5       116.4    
        116.3       116.3       116.2       116.1       116.0       115.9       115.9       115.8       115.7       115.7    
        115.7       115.7       115.7       115.7       115.7       115.7       115.7       115.7       115.8       115.8    
        115.8       115.9       115.9       116.0       116.0    
  39    117.0       117.0       117.0       116.9       116.8       116.7       116.7       116.6       116.5       116.4    
        116.3       116.2       116.2       116.1       116.0       115.9       115.8       115.8       115.7       115.7    
        115.7       115.7       115.7       115.7       115.7       115.7       115.7       115.7       115.8       115.8    
        115.8       115.9       115.9       115.9       116.0    
  40    117.0       117.0       117.0       116.9       116.8       116.7       116.6       116.5       116.5       116.4    
        116.3       116.2       116.1       116.1       116.0       115.9       115.8       115.7       115.7       115.7    
        115.7       115.7       115.7       115.7       115.7       115.7       115.7       115.7       115.8       115.8    
        115.8       115.9       115.9       115.9       116.0    
  41    117.0       117.0       116.9       116.9       116.8       116.7       116.6       116.5       116.4       116.4    
        116.3       116.2       116.1       116.0       116.0       115.9       115.8       115.7       115.7       115.7    
        115.7       115.7       115.7       115.7       115.7       115.7       115.7       115.7       115.7       115.8    
        115.8       115.9       115.9       115.9       116.0    
  42    117.0       117.0       116.9       116.8       116.7       116.7       116.6       116.5       116.4       116.3    
        116.3       116.2       116.1       116.0       115.9       115.9       115.8       115.7       115.7       115.7    
        115.7       115.7       115.7       115.7       115.7       115.7       115.7       115.7       115.7       115.8    
        115.8       115.8       115.9       115.9       116.0    
  43    117.0       117.0       116.9       116.8       116.7       116.6       116.6       116.5       116.4       116.3    
        116.2       116.2       116.1       116.0       115.9       115.8       115.7       115.7       115.7       115.7    
        115.7       115.7       115.7       115.7       115.7       115.7       115.7       115.7       115.7       115.8    
        115.8       115.8       115.9       115.9       115.9    
  44    117.0       116.9       116.9       116.8       116.7       116.6       116.5       116.5       116.4       116.3    
        116.2       116.1       116.1       116.0       115.9       115.8       115.7       115.7       115.7       115.7    
        115.7       115.7       115.7       115.7       115.7       115.7       115.7       115.7       115.7       115.8    
        115.8       115.8       115.9       115.9       115.9    
  45    117.0       116.9       116.8       116.8       116.7       116.6       116.5       116.4       116.4       116.3    
        116.2       116.1       116.0       115.9       115.9       115.8       115.7       115.7       115.7       115.7    
        115.7       115.7       115.7       115.7       115.7       115.7       115.7       115.7       115.7       115.7    
        115.8       115.8       115.9       115.9       115.9    



             MODEL LAYER BOTTOM EL. FOR LAYER   1
 READING ON UNIT   12 WITH FORMAT: (FREE)              

            1           2           3           4           5           6           7           8           9          10
           11          12          13          14          15          16          17          18          19          20
           21          22          23          24          25          26          27          28          29          30
           31          32          33          34          35
 ........................................................................................................................
   1    112.0       112.0       112.0       112.1       112.1       112.1       112.2       112.2       112.2       112.3    
        112.3       112.4       112.4       112.4       112.5       112.5       112.5       112.5       112.5       112.5    
        112.5       112.5       112.5       112.5       112.5       112.5       112.5       112.4       112.4       112.4    
        112.4       112.4       112.4       112.4       112.3    
   2    112.0       112.0       112.0       112.0       112.1       112.1       112.2       112.2       112.2       112.3    
        112.3       112.4       112.4       112.4       112.5       112.5       112.5       112.5       112.5       112.5    
        112.5       112.5       112.5       112.5       112.5       112.5       112.4       112.4       112.4       112.4    
        112.4       112.4       112.4       112.3       112.3    
   3    112.0       112.0       112.0       112.0       112.1       112.1       112.1       112.2       112.2       112.3    
        112.3       112.3       112.4       112.4       112.5       112.5       112.5       112.5       112.5       112.5    
        112.5       112.5       112.5       112.5       112.5       112.4       112.4       112.4       112.4       112.4    
        112.4       112.4       112.3       112.3       112.3    
   4    112.0       112.0       112.0       112.0       112.0       112.1       112.1       112.2       112.2       112.2    
        112.3       112.3       112.4       112.4       112.4       112.5       112.5       112.5       112.5       112.5    
        112.5       112.5       112.5       112.5       112.4       112.4       112.4       112.4       112.4       112.4    
        112.4       112.3       112.3       112.3       112.3    
   5    112.0       112.0       112.0       112.0       112.0       112.1       112.1       112.2       112.2       112.2    
        112.3       112.3       112.4       112.4       112.4       112.5       112.5       112.5       112.5       112.5    
        112.5       112.5       112.5       112.5       112.4       112.4       112.4       112.4       112.4       112.4    
        112.3       112.3       112.3       112.3       112.3    
   6    112.0       112.0       112.0       112.0       112.0       112.1       112.1       112.1       112.2       112.2    
        112.3       112.3       112.3       112.4       112.4       112.5       112.5       112.5       112.5       112.5    
        112.5       112.5       112.5       112.4       112.4       112.4       112.4       112.4       112.4       112.3    
        112.3       112.3       112.3       112.3       112.3    
   7    112.0       112.0       112.0       112.0       112.0       112.0       112.1       112.1       112.2       112.2    
        112.2       112.3       112.3       112.4       112.4       112.4       112.4       112.5       112.5       112.5    
        112.5       112.5       112.4       112.4       112.4       112.4       112.4       112.4       112.3       112.3    
        112.3       112.3       112.3       112.3       112.3    
   8    112.0       112.0       112.0       112.0       112.0       112.0       112.1       112.1       112.2       112.2    
        112.2       112.3       112.3       112.3       112.3       112.3       112.4       112.4       112.5       112.5    
        112.5       112.4       112.4       112.4       112.4       112.4       112.4       112.3       112.3       112.3    
        112.3       112.3       112.3       112.3       112.2    
   9    112.0       112.0       112.0       112.0       112.0       112.0       112.1       112.1       112.1       112.2    
        112.2       112.2       112.2       112.2       112.2       112.2       112.3       112.3       112.4       112.4    
        112.4       112.4       112.4       112.4       112.4       112.4       112.4       112.3       112.3       112.3    
        112.3       112.3       112.3       112.2       112.2    
  10    112.1       112.1       112.1       112.1       112.1       112.0       112.0       112.0       112.0       112.0    
        112.1       112.1       112.1       112.1       112.1       112.2       112.2       112.3       112.3       112.4    
        112.4       112.4       112.4       112.4       112.4       112.4       112.3       112.3       112.3       112.3    
        112.3       112.3       112.2       112.2       112.2    
  11    112.3       112.3       112.3       112.2       112.2       112.2       112.1       111.9       111.9       111.9    
        111.9       111.9       111.9       112.0       112.0       112.1       112.2       112.2       112.3       112.3    
        112.4       112.4       112.4       112.4       112.4       112.3       112.3       112.3       112.3       112.3    
        112.3       112.2       112.2       112.2       112.2    
  12    112.4       112.4       112.4       112.4       112.4       112.4       112.2       112.0       111.9       111.8    
        111.8       111.8       111.9       111.9       112.0       112.0       112.1       112.1       112.2       112.2    
        112.3       112.3       112.4       112.4       112.3       112.3       112.3       112.3       112.3       112.3    
        112.2       112.2       112.2       112.2       112.2    
  13    112.5       112.5       112.5       112.5       112.5       112.5       112.3       112.2       112.0       111.8    
        111.7       111.8       111.8       111.9       111.9       112.0       112.0       112.1       112.1       112.2    
        112.2       112.3       112.3       112.4       112.4       112.3       112.3       112.3       112.3       112.2    
        112.2       112.2       112.2       112.2       112.2    
  14    112.5       112.5       112.5       112.5       112.4       112.4       112.3       112.1       112.0       111.8    
        111.7       111.6       111.7       111.7       111.8       111.9       111.9       112.0       112.0       112.1    
        112.2       112.2       112.3       112.3       112.4       112.4       112.3       112.3       112.3       112.2    
        112.2       112.2       112.2       112.2       112.2    
  15    112.5       112.5       112.4       112.4       112.3       112.2       112.2       112.1       111.9       111.7    
        111.7       111.6       111.5       111.5       111.6       111.7       111.7       111.8       111.9       112.0    
        112.0       112.1       112.2       112.2       112.3       112.3       112.3       112.3       112.2       112.2    
        112.2       112.2       112.2       112.2       112.1    
  16    112.4       112.4       112.3       112.3       112.2       112.1       112.1       112.0       111.9       111.7    
        111.7       111.6       111.5       111.5       111.4       111.5       111.5       111.6       111.7       111.8    
        111.8       111.9       112.0       112.1       112.1       112.2       112.3       112.3       112.2       112.2    
        112.2       112.2       112.2       112.1       112.1    
  17    112.3       112.3       112.2       112.2       112.1       112.0       112.0       111.9       111.8       111.7    
        111.7       111.6       111.5       111.5       111.4       111.3       111.4       111.4       111.5       111.6    
        111.6       111.7       111.8       111.9       111.9       112.0       112.1       112.2       112.3       112.2    
        112.2       112.2       112.1       112.1       112.1    
  18    112.2       112.2       112.1       112.0       112.0       111.9       111.9       111.8       111.8       111.7    
        111.7       111.6       111.5       111.5       111.4       111.3       111.3       111.2       111.3       111.4    
        111.4       111.5       111.6       111.7       111.7       111.8       111.9       112.0       112.1       112.2    
        112.2       112.1       112.1       112.1       112.1    
  19    112.1       112.1       112.0       111.9       111.9       111.8       111.8       111.8       111.8       111.7    
        111.6       111.6       111.5       111.4       111.4       111.3       111.3       111.2       111.1       111.2    
        111.2       111.3       111.4       111.5       111.5       111.6       111.7       111.8       111.9       112.0    
        112.1       112.1       112.1       112.1       112.1    
  20    112.0       111.9       111.9       111.8       111.8       111.8       111.8       111.8       111.7       111.7    
        111.6       111.6       111.5       111.4       111.4       111.3       111.2       111.2       111.1       111.1    
        111.0       111.1       111.2       111.3       111.3       111.4       111.5       111.6       111.7       111.8    
        111.9       112.0       112.1       112.1       112.1    
  21    111.9       111.8       111.8       111.8       111.8       111.8       111.8       111.8       111.7       111.7    
        111.6       111.5       111.5       111.4       111.4       111.3       111.2       111.2       111.1       111.0    
        111.0       110.9       111.0       111.1       111.2       111.2       111.3       111.5       111.6       111.7    
        111.8       112.0       112.1       112.1       112.1    
  22    111.8       111.8       111.8       111.8       111.8       111.8       111.8       111.8       111.7       111.7    
        111.6       111.5       111.5       111.4       111.3       111.3       111.2       111.2       111.1       111.0    
        111.0       110.9       110.8       110.9       111.0       111.2       111.3       111.4       111.6       111.7    
        111.8       111.9       112.1       112.1       112.1    
  23    111.8       111.8       111.8       111.8       111.8       111.8       111.8       111.8       111.7       111.6    
        111.6       111.5       111.4       111.4       111.3       111.3       111.2       111.1       111.1       111.0    
        111.0       110.9       110.8       110.9       111.0       111.1       111.3       111.4       111.5       111.7    
        111.8       111.9       112.0       112.1       112.1    
  24    111.8       111.8       111.8       111.8       111.8       111.8       111.8       111.7       111.7       111.6    
        111.6       111.5       111.4       111.4       111.3       111.2       111.2       111.1       111.1       111.0    
        110.9       110.9       110.8       110.9       111.0       111.1       111.2       111.4       111.5       111.6    
        111.8       111.9       112.0       112.1       112.1    
  25    111.8       111.8       111.8       111.8       111.8       111.8       111.8       111.7       111.7       111.6    
        111.5       111.5       111.4       111.4       111.3       111.2       111.2       111.1       111.0       111.0    
        110.9       110.9       110.8       110.8       111.0       111.1       111.2       111.3       111.5       111.6    
        111.7       111.8       112.0       112.1       112.1    
  26    111.8       111.8       111.8       111.8       111.8       111.8       111.8       111.7       111.6       111.6    
        111.5       111.5       111.4       111.3       111.3       111.2       111.1       111.1       111.0       111.0    
        110.9       110.8       110.8       110.8       110.9       111.0       111.2       111.3       111.4       111.6    
        111.7       111.8       111.9       112.1       112.1    
  27    111.8       111.8       111.8       111.8       111.8       111.8       111.8       111.7       111.6       111.6    
        111.5       111.4       111.4       111.3       111.3       111.2       111.1       111.1       111.0       110.9    
        110.9       110.8       110.8       110.8       110.9       111.0       111.1       111.3       111.4       111.5    
        111.7       111.8       111.9       112.0       112.1    
  28    111.8       111.8       111.8       111.8       111.8       111.8       111.7       111.7       111.6       111.5    
        111.5       111.4       111.4       111.3       111.2       111.2       111.1       111.1       111.0       110.9    
        110.9       110.8       110.8       110.8       110.9       111.0       111.1       111.2       111.4       111.5    
        111.6       111.8       111.9       112.0       112.1    
  29    111.8       111.8       111.8       111.8       111.8       111.8       111.7       111.7       111.6       111.5    
        111.5       111.4       111.3       111.3       111.2       111.2       111.1       111.0       111.0       110.9    
        110.8       110.8       110.8       110.8       110.8       111.0       111.1       111.2       111.3       111.5    
        111.6       111.7       111.8       112.0       112.1    
  30    111.8       111.8       111.8       111.8       111.8       111.8       111.7       111.6       111.6       111.5    
        111.5       111.4       111.3       111.3       111.2       111.1       111.1       111.0       111.0       110.9    
        110.8       110.8       110.8       110.8       110.8       110.9       111.1       111.2       111.3       111.4    
        111.6       111.7       111.8       111.9       112.1    
  31    111.8       111.8       111.8       111.8       111.8       111.7       111.7       111.6       111.6       111.5    
        111.4       111.4       111.3       111.2       111.2       111.1       111.1       111.0       110.9       110.9    
        110.8       110.8       110.8       110.8       110.8       110.9       111.0       111.1       111.3       111.4    
        111.5       111.7       111.8       111.9       112.0    
  32    111.8       111.8       111.8       111.8       111.8       111.7       111.7       111.6       111.5       111.5    
        111.4       111.4       111.3       111.2       111.2       111.1       111.0       111.0       110.9       110.9    
        110.8       110.8       110.8       110.8       110.8       110.9       111.0       111.1       111.2       111.4    
        111.5       111.6       111.8       111.9       112.0    
  33    111.8       111.8       111.8       111.8       111.8       111.7       111.6       111.6       111.5       111.5    
        111.4       111.3       111.3       111.2       111.2       111.1       111.0       111.0       110.9       110.8    
        110.8       110.8       110.8       110.8       110.8       110.8       111.0       111.1       111.2       111.3    
        111.5       111.6       111.7       111.9       112.0    
  34    111.8       111.8       111.8       111.8       111.8       111.7       111.6       111.6       111.5       111.4    
        111.4       111.3       111.3       111.2       111.1       111.1       111.0       111.0       110.9       110.8    
        110.8       110.8       110.8       110.8       110.8       110.8       110.9       111.1       111.2       111.3    
        111.4       111.6       111.7       111.8       111.9    
  35    111.8       111.8       111.8       111.8       111.7       111.7       111.6       111.6       111.5       111.4    
        111.4       111.3       111.2       111.2       111.1       111.1       111.0       110.9       110.9       110.8    
        110.8       110.8       110.8       110.8       110.8       110.8       110.9       111.0       111.1       111.3    
        111.4       111.5       111.7       111.8       111.9    
  36    111.8       111.8       111.8       111.8       111.7       111.7       111.6       111.5       111.5       111.4    
        111.3       111.3       111.2       111.2       111.1       111.0       111.0       110.9       110.9       110.8    
        110.8       110.8       110.8       110.8       110.8       110.8       110.9       111.0       111.1       111.2    
        111.4       111.5       111.6       111.8       111.9    
  37    111.8       111.8       111.8       111.8       111.7       111.6       111.6       111.5       111.5       111.4    
        111.3       111.3       111.2       111.1       111.1       111.0       111.0       110.9       110.8       110.8    
        110.8       110.8       110.8       110.8       110.8       110.8       110.8       111.0       111.1       111.2    
        111.3       111.5       111.6       111.7       111.9    
  38    111.8       111.8       111.8       111.7       111.7       111.6       111.6       111.5       111.4       111.4    
        111.3       111.3       111.2       111.1       111.1       111.0       110.9       110.9       110.8       110.8    
        110.8       110.8       110.8       110.8       110.8       110.8       110.8       110.9       111.1       111.2    
        111.3       111.4       111.6       111.7       111.8    
  39    111.8       111.8       111.8       111.7       111.7       111.6       111.5       111.5       111.4       111.4    
        111.3       111.2       111.2       111.1       111.1       111.0       110.9       110.9       110.8       110.8    
        110.8       110.8       110.8       110.8       110.8       110.8       110.8       110.9       111.0       111.2    
        111.3       111.4       111.5       111.7       111.8    
  40    111.8       111.8       111.8       111.7       111.7       111.6       111.5       111.5       111.4       111.3    
        111.3       111.2       111.2       111.1       111.0       111.0       110.9       110.8       110.8       110.8    
        110.8       110.8       110.8       110.8       110.8       110.8       110.8       110.9       111.0       111.1    
        111.2       111.4       111.5       111.6       111.8    
  41    111.8       111.8       111.8       111.7       111.6       111.6       111.5       111.5       111.4       111.3    
        111.3       111.2       111.1       111.1       111.0       111.0       110.9       110.8       110.8       110.8    
        110.8       110.8       110.8       110.8       110.8       110.8       110.8       110.8       111.0       111.1    
        111.2       111.3       111.5       111.6       111.7    
  42    111.8       111.8       111.7       111.7       111.6       111.6       111.5       111.4       111.4       111.3    
        111.2       111.2       111.1       111.1       111.0       110.9       110.9       110.8       110.8       110.8    
        110.8       110.8       110.8       110.8       110.8       110.8       110.8       110.8       110.9       111.1    
        111.2       111.3       111.4       111.6       111.7    
  43    111.8       111.8       111.7       111.7       111.6       111.5       111.5       111.4       111.4       111.3    
        111.2       111.2       111.1       111.0       111.0       110.9       110.9       110.8       110.8       110.8    
        110.8       110.8       110.8       110.8       110.8       110.8       110.8       110.8       110.9       111.0    
        111.2       111.3       111.4       111.5       111.7    
  44    111.8       111.8       111.7       111.6       111.6       111.5       111.5       111.4       111.3       111.3    
        111.2       111.2       111.1       111.0       111.0       110.9       110.8       110.8       110.8       110.8    
        110.8       110.8       110.8       110.8       110.8       110.8       110.8       110.8       110.9       111.0    
        111.1       111.3       111.4       111.5       111.6    
  45    111.8       111.8       111.7       111.6       111.6       111.5       111.4       111.4       111.3       111.3    
        111.2       111.1       111.1       111.0       110.9       110.9       110.8       110.8       110.8       110.8    
        110.8       110.8       110.8       110.8       110.8       110.8       110.8       110.8       110.8       111.0    
        111.1       111.2       111.3       111.5       111.6    



             MODEL LAYER BOTTOM EL. FOR LAYER   2
 READING ON UNIT   12 WITH FORMAT: (FREE)              

            1           2           3           4           5           6           7           8           9          10
           11          12          13          14          15          16          17          18          19          20
           21          22          23          24          25          26          27          28          29          30
           31          32          33          34          35
 ........................................................................................................................
   1    108.7       108.7       108.7       108.7       108.7       108.7       108.8       108.8       108.8       108.9    
        108.9       108.9       108.9       109.0       109.0       109.0       109.0       109.0       109.0       109.0    
        109.0       109.0       109.0       109.0       108.9       108.9       108.9       108.9       108.8       108.8    
        108.8       108.7       108.7       108.7       108.6    
   2    108.7       108.7       108.7       108.7       108.7       108.7       108.8       108.8       108.8       108.8    
        108.9       108.9       108.9       109.0       109.0       109.0       109.0       109.0       109.0       109.0    
        109.0       109.0       109.0       109.0       108.9       108.9       108.9       108.8       108.8       108.8    
        108.7       108.7       108.7       108.6       108.6    
   3    108.7       108.7       108.7       108.7       108.7       108.7       108.8       108.8       108.8       108.8    
        108.9       108.9       108.9       109.0       109.0       109.0       109.0       109.0       109.0       109.0    
        109.0       109.0       109.0       108.9       108.9       108.9       108.8       108.8       108.8       108.7    
        108.7       108.7       108.6       108.6       108.6    
   4    108.7       108.7       108.7       108.7       108.7       108.7       108.7       108.8       108.8       108.8    
        108.9       108.9       108.9       108.9       109.0       109.0       109.0       109.0       109.0       109.0    
        109.0       109.0       108.9       108.9       108.9       108.8       108.8       108.8       108.7       108.7    
        108.7       108.6       108.6       108.6       108.5    
   5    108.7       108.7       108.7       108.7       108.7       108.7       108.7       108.8       108.8       108.8    
        108.8       108.9       108.9       108.9       109.0       109.0       109.0       109.0       109.0       109.0    
        109.0       108.9       108.9       108.9       108.8       108.8       108.8       108.7       108.7       108.7    
        108.6       108.6       108.6       108.5       108.5    
   6    108.7       108.7       108.7       108.7       108.7       108.7       108.7       108.8       108.8       108.8    
        108.8       108.9       108.9       108.9       109.0       109.0       109.0       109.0       109.0       109.0    
        108.9       108.9       108.9       108.8       108.8       108.8       108.7       108.7       108.7       108.6    
        108.6       108.6       108.5       108.5       108.5    
   7    108.7       108.7       108.7       108.7       108.7       108.7       108.7       108.7       108.8       108.8    
        108.8       108.9       108.9       108.9       108.9       108.9       108.9       108.9       109.0       108.9    
        108.9       108.9       108.8       108.8       108.8       108.7       108.7       108.7       108.6       108.6    
        108.6       108.5       108.5       108.5       108.5    
   8    108.7       108.7       108.7       108.7       108.7       108.7       108.7       108.7       108.8       108.8    
        108.8       108.8       108.8       108.8       108.8       108.8       108.8       108.8       108.9       108.9    
        108.9       108.8       108.8       108.8       108.7       108.7       108.7       108.6       108.6       108.6    
        108.6       108.5       108.5       108.5       108.4    
   9    108.7       108.7       108.7       108.7       108.7       108.7       108.7       108.7       108.7       108.8    
        108.7       108.7       108.7       108.6       108.6       108.7       108.7       108.7       108.8       108.8    
        108.8       108.8       108.8       108.7       108.7       108.7       108.7       108.6       108.6       108.6    
        108.5       108.5       108.5       108.4       108.4    
  10    108.7       108.7       108.7       108.7       108.7       108.7       108.7       108.6       108.6       108.6    
        108.6       108.5       108.5       108.5       108.5       108.6       108.6       108.6       108.7       108.7    
        108.8       108.8       108.8       108.7       108.7       108.7       108.6       108.6       108.6       108.5    
        108.5       108.5       108.4       108.4       108.4    
  11    108.8       108.7       108.7       108.7       108.7       108.7       108.6       108.5       108.4       108.4    
        108.4       108.4       108.3       108.4       108.4       108.4       108.5       108.5       108.6       108.6    
        108.6       108.7       108.7       108.7       108.7       108.6       108.6       108.6       108.5       108.5    
        108.5       108.4       108.4       108.4       108.3    
  12    108.8       108.8       108.8       108.8       108.8       108.8       108.7       108.5       108.3       108.2    
        108.2       108.2       108.2       108.3       108.3       108.3       108.4       108.4       108.5       108.5    
        108.5       108.6       108.6       108.7       108.6       108.6       108.6       108.5       108.5       108.5    
        108.4       108.4       108.4       108.3       108.3    
  13    108.8       108.8       108.8       108.8       108.8       108.8       108.7       108.5       108.4       108.2    
        108.0       108.1       108.1       108.2       108.2       108.2       108.3       108.3       108.4       108.4    
        108.4       108.5       108.5       108.6       108.6       108.6       108.5       108.5       108.5       108.4    
        108.4       108.4       108.3       108.3       108.3    
  14    108.8       108.8       108.8       108.8       108.9       108.9       108.9       108.7       108.6       108.4    
        108.2       108.1       108.1       108.1       108.1       108.1       108.2       108.2       108.3       108.3    
        108.3       108.4       108.4       108.5       108.5       108.5       108.5       108.5       108.4       108.4    
        108.4       108.3       108.3       108.3       108.2    
  15    108.8       108.8       108.9       108.9       108.9       109.0       109.0       108.9       108.7       108.6    
        108.4       108.3       108.1       108.1       108.1       108.1       108.1       108.2       108.2       108.2    
        108.3       108.3       108.3       108.3       108.4       108.4       108.5       108.4       108.4       108.4    
        108.3       108.3       108.3       108.2       108.2    
  16    108.8       108.9       108.9       109.0       109.0       109.1       109.1       109.1       108.9       108.8    
        108.6       108.5       108.3       108.2       108.1       108.1       108.1       108.1       108.2       108.2    
        108.2       108.2       108.3       108.3       108.3       108.4       108.4       108.4       108.4       108.3    
        108.3       108.3       108.3       108.2       108.2    
  17    108.9       109.0       109.0       109.1       109.1       109.1       109.2       109.2       109.1       109.0    
        108.8       108.7       108.5       108.4       108.3       108.1       108.1       108.1       108.1       108.2    
        108.2       108.2       108.2       108.3       108.3       108.3       108.3       108.3       108.3       108.3    
        108.3       108.3       108.2       108.2       108.2    
  18    109.0       109.1       109.1       109.1       109.2       109.2       109.3       109.3       109.3       109.2    
        109.1       108.9       108.8       108.6       108.5       108.3       108.2       108.1       108.1       108.1    
        108.2       108.2       108.2       108.2       108.3       108.3       108.3       108.3       108.3       108.3    
        108.3       108.2       108.2       108.2       108.2    
  19    109.1       109.1       109.2       109.2       109.3       109.3       109.3       109.3       109.3       109.2    
        109.2       109.1       109.0       108.8       108.7       108.5       108.4       108.2       108.1       108.1    
        108.1       108.1       108.2       108.2       108.2       108.2       108.2       108.2       108.2       108.2    
        108.2       108.2       108.2       108.2       108.2    
  20    109.2       109.2       109.3       109.3       109.3       109.3       109.3       109.3       109.3       109.2    
        109.1       109.1       109.0       108.9       108.8       108.7       108.6       108.5       108.3       108.2    
        108.1       108.1       108.1       108.2       108.2       108.2       108.2       108.2       108.2       108.2    
        108.1       108.2       108.2       108.2       108.2    
  21    109.3       109.3       109.3       109.3       109.3       109.3       109.3       109.3       109.3       109.2    
        109.1       109.0       108.9       108.9       108.8       108.7       108.6       108.5       108.5       108.4    
        108.2       108.1       108.1       108.1       108.1       108.1       108.1       108.1       108.1       108.1    
        108.1       108.1       108.2       108.2       108.2    
  22    109.3       109.3       109.3       109.3       109.3       109.3       109.3       109.3       109.2       109.2    
        109.1       109.0       108.9       108.8       108.8       108.7       108.6       108.5       108.4       108.4    
        108.3       108.2       108.1       108.1       108.1       108.1       108.1       108.1       108.1       108.1    
        108.1       108.1       108.2       108.2       108.2    
  23    109.3       109.3       109.3       109.3       109.3       109.3       109.3       109.3       109.2       109.1    
        109.1       109.0       108.9       108.8       108.7       108.7       108.6       108.5       108.4       108.3    
        108.3       108.2       108.1       108.1       108.1       108.1       108.1       108.1       108.1       108.1    
        108.1       108.1       108.2       108.2       108.2    
  24    109.3       109.3       109.3       109.3       109.3       109.3       109.3       109.3       109.2       109.1    
        109.0       109.0       108.9       108.8       108.7       108.6       108.6       108.5       108.4       108.3    
        108.2       108.1       108.1       108.1       108.1       108.1       108.1       108.1       108.1       108.1    
        108.1       108.1       108.2       108.2       108.2    
  25    109.3       109.3       109.3       109.3       109.3       109.3       109.3       109.3       109.2       109.1    
        109.0       108.9       108.9       108.8       108.7       108.6       108.5       108.4       108.4       108.3    
        108.2       108.1       108.1       108.1       108.1       108.1       108.1       108.1       108.1       108.1    
        108.1       108.1       108.1       108.2       108.2    
  26    109.3       109.3       109.3       109.3       109.3       109.3       109.3       109.2       109.2       109.1    
        109.0       108.9       108.8       108.8       108.7       108.6       108.5       108.4       108.3       108.3    
        108.2       108.1       108.1       108.1       108.1       108.1       108.1       108.1       108.1       108.1    
        108.1       108.1       108.1       108.2       108.2    
  27    109.3       109.3       109.3       109.3       109.3       109.3       109.3       109.2       109.1       109.1    
        109.0       108.9       108.8       108.7       108.6       108.6       108.5       108.4       108.3       108.2    
        108.2       108.1       108.1       108.1       108.1       108.1       108.1       108.1       108.1       108.1    
        108.1       108.1       108.1       108.2       108.2    
  28    109.3       109.3       109.3       109.3       109.3       109.3       109.3       109.2       109.1       109.0    
        109.0       108.9       108.8       108.7       108.6       108.5       108.5       108.4       108.3       108.2    
        108.1       108.1       108.1       108.1       108.1       108.1       108.1       108.1       108.1       108.1    
        108.1       108.1       108.1       108.2       108.2    
  29    109.3       109.3       109.3       109.3       109.3       109.3       109.3       109.2       109.1       109.0    
        108.9       108.8       108.8       108.7       108.6       108.5       108.4       108.4       108.3       108.2    
        108.1       108.1       108.1       108.1       108.1       108.1       108.1       108.1       108.1       108.1    
        108.1       108.1       108.1       108.1       108.2    
  30    109.3       109.3       109.3       109.3       109.3       109.3       109.2       109.2       109.1       109.0    
        108.9       108.8       108.7       108.7       108.6       108.5       108.4       108.3       108.3       108.2    
        108.1       108.1       108.1       108.1       108.1       108.1       108.1       108.1       108.1       108.1    
        108.1       108.1       108.1       108.1       108.2    
  31    109.3       109.3       109.3       109.3       109.3       109.3       109.2       109.1       109.0       109.0    
        108.9       108.8       108.7       108.6       108.6       108.5       108.4       108.3       108.2       108.2    
        108.1       108.1       108.1       108.1       108.1       108.1       108.1       108.1       108.1       108.1    
        108.1       108.1       108.1       108.1       108.2    
  32    109.3       109.3       109.3       109.3       109.3       109.3       109.2       109.1       109.0       108.9    
        108.9       108.8       108.7       108.6       108.5       108.5       108.4       108.3       108.2       108.1    
        108.1       108.1       108.1       108.1       108.1       108.1       108.1       108.1       108.1       108.1    
        108.1       108.1       108.1       108.1       108.2    
  33    109.3       109.3       109.3       109.3       109.3       109.2       109.2       109.1       109.0       108.9    
        108.8       108.8       108.7       108.6       108.5       108.4       108.4       108.3       108.2       108.1    
        108.1       108.1       108.1       108.1       108.1       108.1       108.1       108.1       108.1       108.1    
        108.1       108.1       108.1       108.1       108.1    
  34    109.3       109.3       109.3       109.3       109.3       109.2       109.1       109.1       109.0       108.9    
        108.8       108.7       108.7       108.6       108.5       108.4       108.3       108.2       108.2       108.1    
        108.1       108.1       108.1       108.1       108.1       108.1       108.1       108.1       108.1       108.1    
        108.1       108.1       108.1       108.1       108.1    
  35    109.3       109.3       109.3       109.3       109.3       109.2       109.1       109.0       109.0       108.9    
        108.8       108.7       108.6       108.6       108.5       108.4       108.3       108.2       108.1       108.1    
        108.1       108.1       108.1       108.1       108.1       108.1       108.1       108.1       108.1       108.1    
        108.1       108.1       108.1       108.1       108.1    
  36    109.3       109.3       109.3       109.3       109.3       109.2       109.1       109.0       108.9       108.9    
        108.8       108.7       108.6       108.5       108.4       108.4       108.3       108.2       108.1       108.1    
        108.1       108.1       108.1       108.1       108.1       108.1       108.1       108.1       108.1       108.1    
        108.1       108.1       108.1       108.1       108.1    
  37    109.3       109.3       109.3       109.3       109.2       109.2       109.1       109.0       108.9       108.8    
        108.8       108.7       108.6       108.5       108.4       108.3       108.3       108.2       108.1       108.1    
        108.1       108.1       108.1       108.1       108.1       108.1       108.1       108.1       108.1       108.1    
        108.1       108.1       108.1       108.1       108.1    
  38    109.3       109.3       109.3       109.3       109.2       109.1       109.1       109.0       108.9       108.8    
        108.7       108.6       108.6       108.5       108.4       108.3       108.2       108.2       108.1       108.1    
        108.1       108.1       108.1       108.1       108.1       108.1       108.1       108.1       108.1       108.1    
        108.1       108.1       108.1       108.1       108.1    
  39    109.3       109.3       109.3       109.3       109.2       109.1       109.0       109.0       108.9       108.8    
        108.7       108.6       108.5       108.5       108.4       108.3       108.2       108.1       108.1       108.1    
        108.1       108.1       108.1       108.1       108.1       108.1       108.1       108.1       108.1       108.1    
        108.1       108.1       108.1       108.1       108.1    
  40    109.3       109.3       109.3       109.3       109.2       109.1       109.0       108.9       108.8       108.8    
        108.7       108.6       108.5       108.4       108.4       108.3       108.2       108.1       108.1       108.1    
        108.1       108.1       108.1       108.1       108.1       108.1       108.1       108.1       108.1       108.1    
        108.1       108.1       108.1       108.1       108.1    
  41    109.3       109.3       109.3       109.2       109.2       109.1       109.0       108.9       108.8       108.7    
        108.7       108.6       108.5       108.4       108.3       108.3       108.2       108.1       108.1       108.1    
        108.1       108.1       108.1       108.1       108.1       108.1       108.1       108.1       108.1       108.1    
        108.1       108.1       108.1       108.1       108.1    
  42    109.3       109.3       109.3       109.2       109.1       109.0       109.0       108.9       108.8       108.7    
        108.6       108.6       108.5       108.4       108.3       108.2       108.2       108.1       108.1       108.1    
        108.1       108.1       108.1       108.1       108.1       108.1       108.1       108.1       108.1       108.1    
        108.1       108.1       108.1       108.1       108.1    
  43    109.3       109.3       109.3       109.2       109.1       109.0       108.9       108.9       108.8       108.7    
        108.6       108.5       108.5       108.4       108.3       108.2       108.1       108.1       108.1       108.1    
        108.1       108.1       108.1       108.1       108.1       108.1       108.1       108.1       108.1       108.1    
        108.1       108.1       108.1       108.1       108.1    
  44    109.3       109.3       109.2       109.2       109.1       109.0       108.9       108.8       108.8       108.7    
        108.6       108.5       108.4       108.4       108.3       108.2       108.1       108.1       108.1       108.1    
        108.1       108.1       108.1       108.1       108.1       108.1       108.1       108.1       108.1       108.1    
        108.1       108.1       108.1       108.1       108.1    
  45    109.3       109.3       109.2       109.1       109.1       109.0       108.9       108.8       108.7       108.7    
        108.6       108.5       108.4       108.3       108.2       108.2       108.1       108.1       108.1       108.1    
        108.1       108.1       108.1       108.1       108.1       108.1       108.1       108.1       108.1       108.1    
        108.1       108.1       108.1       108.1       108.1    



             MODEL LAYER BOTTOM EL. FOR LAYER   3
 READING ON UNIT   12 WITH FORMAT: (FREE)              

            1           2           3           4           5           6           7           8           9          10
           11          12          13          14          15          16          17          18          19          20
           21          22          23          24          25          26          27          28          29          30
           31          32          33          34          35
 ........................................................................................................................
   1    107.2       107.2       107.2       107.2       107.2       107.2       107.3       107.3       107.3       107.3    
        107.4       107.4       107.4       107.5       107.5       107.5       107.5       107.5       107.5       107.5    
        107.5       107.5       107.5       107.5       107.4       107.4       107.3       107.3       107.2       107.2    
        107.1       107.1       107.1       107.0       107.0    
   2    107.2       107.2       107.2       107.2       107.2       107.2       107.2       107.3       107.3       107.3    
        107.4       107.4       107.4       107.5       107.5       107.5       107.5       107.5       107.5       107.5    
        107.5       107.5       107.5       107.4       107.4       107.3       107.3       107.2       107.2       107.2    
        107.1       107.1       107.0       107.0       106.9    
   3    107.2       107.2       107.2       107.2       107.2       107.2       107.2       107.3       107.3       107.3    
        107.4       107.4       107.4       107.4       107.5       107.5       107.5       107.5       107.5       107.5    
        107.5       107.5       107.4       107.4       107.3       107.3       107.2       107.2       107.2       107.1    
        107.1       107.0       107.0       106.9       106.9    
   4    107.2       107.2       107.2       107.2       107.2       107.2       107.2       107.3       107.3       107.3    
        107.3       107.4       107.4       107.4       107.5       107.5       107.5       107.5       107.5       107.5    
        107.5       107.4       107.4       107.3       107.3       107.2       107.2       107.2       107.1       107.1    
        107.0       107.0       106.9       106.9       106.9    
   5    107.2       107.2       107.2       107.2       107.2       107.2       107.2       107.2       107.3       107.3    
        107.3       107.4       107.4       107.4       107.5       107.5       107.5       107.5       107.5       107.5    
        107.4       107.4       107.3       107.3       107.3       107.2       107.2       107.1       107.1       107.0    
        107.0       106.9       106.9       106.9       106.8    
   6    107.2       107.2       107.2       107.2       107.2       107.2       107.2       107.2       107.3       107.3    
        107.3       107.4       107.4       107.4       107.4       107.5       107.5       107.5       107.5       107.4    
        107.4       107.3       107.3       107.3       107.2       107.2       107.1       107.1       107.0       107.0    
        106.9       106.9       106.9       106.8       106.8    
   7    107.2       107.2       107.2       107.2       107.2       107.2       107.2       107.2       107.3       107.3    
        107.3       107.3       107.4       107.4       107.4       107.4       107.4       107.4       107.4       107.4    
        107.4       107.3       107.3       107.2       107.2       107.1       107.1       107.0       107.0       107.0    
        106.9       106.9       106.8       106.8       106.7    
   8    107.2       107.2       107.2       107.2       107.2       107.2       107.2       107.2       107.2       107.3    
        107.3       107.3       107.3       107.3       107.3       107.3       107.3       107.3       107.2       107.4    
        107.3       107.3       107.2       107.2       107.1       107.1       107.0       107.0       107.0       106.9    
        106.9       106.8       106.8       106.7       106.7    
   9    107.2       107.2       107.2       107.2       107.2       107.2       107.2       107.2       107.2       107.2    
        107.2       107.2       107.2       107.2       107.2       107.2       107.2       107.1       107.1       107.1    
        107.3       107.2       107.2       107.1       107.1       107.0       107.0       107.0       106.9       106.9    
        106.8       106.8       106.7       106.7       106.7    
  10    107.2       107.2       107.2       107.2       107.2       107.2       107.2       107.1       107.1       107.1    
        107.1       107.1       107.1       107.1       107.1       107.1       107.0       107.0       107.0       106.9    
        106.9       107.1       107.1       107.1       107.1       107.0       107.0       106.9       106.9       106.8    
        106.8       106.7       106.7       106.7       106.6    
  11    107.2       107.2       107.2       107.2       107.2       107.2       107.1       107.0       107.0       107.0    
        107.0       107.0       107.0       107.0       107.0       106.9       106.9       106.9       106.8       106.8    
        106.8       106.7       106.9       107.1       107.0       107.0       106.9       106.9       106.8       106.8    
        106.7       106.7       106.7       106.6       106.6    
  12    107.3       107.3       107.3       107.3       107.3       107.3       107.2       107.1       107.0       106.9    
        106.9       106.9       106.9       106.9       106.8       106.8       106.8       106.7       106.7       106.7    
        106.6       106.6       106.6       106.8       107.0       106.9       106.9       106.8       106.8       106.8    
        106.7       106.7       106.6       106.6       106.5    
  13    107.3       107.3       107.3       107.3       107.3       107.3       107.2       107.1       107.0       106.9    
        106.8       106.8       106.7       106.7       106.7       106.7       106.6       106.6       106.6       106.5    
        106.5       106.5       106.4       106.4       106.6       106.9       106.8       106.8       106.8       106.7    
        106.7       106.6       106.6       106.5       106.5    
  14    107.3       107.3       107.3       107.3       107.3       107.3       107.3       107.2       107.1       107.0    
        106.9       106.7       106.7       106.6       106.6       106.5       106.5       106.5       106.4       106.4    
        106.4       106.3       106.3       106.3       106.2       106.4       106.8       106.8       106.7       106.7    
        106.6       106.6       106.5       106.5       106.5    
  15    107.3       107.3       107.3       107.3       107.3       107.4       107.4       107.3       107.2       107.1    
        106.9       106.8       106.6       106.5       106.5       106.5       106.4       106.4       106.3       106.3    
        106.3       106.2       106.2       106.1       106.1       106.1       106.3       106.7       106.7       106.6    
        106.6       106.5       106.5       106.5       106.4    
  16    107.3       107.3       107.3       107.4       107.4       107.4       107.4       107.4       107.3       107.2    
        107.0       106.9       106.7       106.6       106.4       106.4       106.3       106.3       106.3       106.2    
        106.2       106.1       106.1       106.1       106.0       106.0       105.9       106.1       106.6       106.6    
        106.5       106.5       106.5       106.4       106.4    
  17    107.3       107.4       107.4       107.4       107.4       107.4       107.4       107.5       107.4       107.3    
        107.1       107.0       106.8       106.7       106.5       106.4       106.3       106.2       106.2       106.1    
        106.1       106.1       106.0       106.0       105.9       105.9       105.9       106.0       106.1       106.6    
        106.5       106.5       106.4       106.4       106.3    
  18    107.4       107.4       107.4       107.4       107.4       107.5       107.5       107.5       107.5       107.4    
        107.2       107.0       106.9       106.7       106.6       106.4       106.3       106.2       106.1       106.1    
        106.0       106.0       106.0       105.9       105.9       105.8       105.9       106.0       106.1       106.1    
        106.5       106.4       106.4       106.3       106.3    
  19    107.4       107.4       107.4       107.5       107.5       107.5       107.5       107.5       107.5       107.4    
        107.2       107.1       107.0       106.8       106.7       106.5       106.4       106.2       106.1       106.0    
        106.0       105.9       105.9       105.8       105.8       105.8       105.9       106.0       106.1       106.1    
        106.2       106.3       106.3       106.3       106.3    
  20    107.4       107.5       107.5       107.5       107.5       107.5       107.5       107.5       107.4       107.3    
        107.2       107.1       107.0       106.8       106.7       106.6       106.5       106.3       106.1       106.0    
        105.9       105.8       105.8       105.8       105.8       105.8       105.9       106.0       106.1       106.1    
        106.2       106.3       106.3       106.3       106.3    
  21    107.5       107.5       107.5       107.5       107.5       107.5       107.5       107.5       107.4       107.3    
        107.2       107.0       106.9       106.8       106.7       106.6       106.4       106.3       106.2       106.1    
        105.9       105.8       105.7       105.7       105.8       105.8       105.9       106.0       106.0       106.1    
        106.2       106.3       106.3       106.3       106.3    
  22    107.5       107.5       107.5       107.5       107.5       107.5       107.5       107.5       107.4       107.3    
        107.1       107.0       106.9       106.8       106.6       106.5       106.4       106.3       106.2       106.0    
        105.9       105.8       105.7       105.7       105.8       105.8       105.9       106.0       106.0       106.1    
        106.2       106.2       106.3       106.3       106.3    
  23    107.5       107.5       107.5       107.5       107.5       107.5       107.5       107.5       107.3       107.2    
        107.1       107.0       106.9       106.7       106.6       106.5       106.4       106.3       106.1       106.0    
        105.9       105.8       105.6       105.7       105.7       105.8       105.9       105.9       106.0       106.1    
        106.2       106.2       106.3       106.3       106.3    
  24    107.5       107.5       107.5       107.5       107.5       107.5       107.5       107.4       107.3       107.2    
        107.1       106.9       106.8       106.7       106.6       106.5       106.3       106.2       106.1       106.0    
        105.9       105.7       105.6       105.7       105.7       105.8       105.9       105.9       106.0       106.1    
        106.1       106.2       106.3       106.3       106.3    
  25    107.5       107.5       107.5       107.5       107.5       107.5       107.5       107.4       107.3       107.2    
        107.0       106.9       106.8       106.7       106.5       106.4       106.3       106.2       106.1       105.9    
        105.8       105.7       105.6       105.6       105.7       105.8       105.8       105.9       106.0       106.1    
        106.1       106.2       106.3       106.3       106.3    
  26    107.5       107.5       107.5       107.5       107.5       107.5       107.5       107.4       107.2       107.1    
        107.0       106.9       106.8       106.6       106.5       106.4       106.3       106.2       106.0       105.9    
        105.8       105.7       105.6       105.6       105.7       105.8       105.8       105.9       106.0       106.0    
        106.1       106.2       106.2       106.3       106.3    
  27    107.5       107.5       107.5       107.5       107.5       107.5       107.4       107.3       107.2       107.1    
        107.0       106.8       106.7       106.6       106.5       106.4       106.2       106.1       106.0       105.9    
        105.8       105.6       105.6       105.6       105.7       105.7       105.8       105.9       105.9       106.0    
        106.1       106.2       106.2       106.3       106.3    
  28    107.5       107.5       107.5       107.5       107.5       107.5       107.4       107.3       107.2       107.1    
        106.9       106.8       106.7       106.6       106.4       106.3       106.2       106.1       106.0       105.8    
        105.7       105.6       105.6       105.6       105.7       105.7       105.8       105.9       105.9       106.0    
        106.1       106.1       106.2       106.3       106.3    
  29    107.5       107.5       107.5       107.5       107.5       107.5       107.4       107.3       107.1       107.0    
        106.9       106.8       106.7       106.5       106.4       106.3       106.2       106.1       105.9       105.8    
        105.7       105.6       105.6       105.6       105.6       105.7       105.8       105.8       105.9       106.0    
        106.1       106.1       106.2       106.3       106.3    
  30    107.5       107.5       107.5       107.5       107.5       107.5       107.4       107.2       107.1       107.0    
        106.9       106.7       106.6       106.5       106.4       106.3       106.1       106.0       105.9       105.8    
        105.7       105.6       105.6       105.6       105.6       105.7       105.8       105.8       105.9       106.0    
        106.0       106.1       106.2       106.2       106.3    
  31    107.5       107.5       107.5       107.5       107.5       107.4       107.3       107.2       107.1       107.0    
        106.8       106.7       106.6       106.5       106.3       106.2       106.1       106.0       105.9       105.7    
        105.6       105.6       105.6       105.6       105.6       105.7       105.7       105.8       105.9       106.0    
        106.0       106.1       106.2       106.2       106.3    
  32    107.5       107.5       107.5       107.5       107.5       107.4       107.3       107.2       107.0       106.9    
        106.8       106.7       106.6       106.4       106.3       106.2       106.1       106.0       105.8       105.7    
        105.6       105.6       105.6       105.6       105.6       105.7       105.7       105.8       105.9       105.9    
        106.0       106.1       106.1       106.2       106.3    
  33    107.5       107.5       107.5       107.5       107.5       107.4       107.3       107.1       107.0       106.9    
        106.8       106.6       106.5       106.4       106.3       106.2       106.0       105.9       105.8       105.7    
        105.6       105.6       105.6       105.6       105.6       105.6       105.7       105.8       105.9       105.9    
        106.0       106.1       106.1       106.2       106.3    
  34    107.5       107.5       107.5       107.5       107.5       107.3       107.2       107.1       107.0       106.9    
        106.7       106.6       106.5       106.4       106.2       106.1       106.0       105.9       105.8       105.6    
        105.6       105.6       105.6       105.6       105.6       105.6       105.7       105.8       105.8       105.9    
        106.0       106.0       106.1       106.2       106.2    
  35    107.5       107.5       107.5       107.5       107.4       107.3       107.2       107.1       106.9       106.8    
        106.7       106.6       106.5       106.3       106.2       106.1       106.0       105.9       105.7       105.6    
        105.6       105.6       105.6       105.6       105.6       105.6       105.7       105.8       105.8       105.9    
        106.0       106.0       106.1       106.2       106.2    
  36    107.5       107.5       107.5       107.5       107.4       107.3       107.2       107.0       106.9       106.8    
        106.7       106.5       106.4       106.3       106.2       106.1       105.9       105.8       105.7       105.6    
        105.6       105.6       105.6       105.6       105.6       105.6       105.7       105.7       105.8       105.9    
        105.9       106.0       106.1       106.1       106.2    
  37    107.5       107.5       107.5       107.5       107.4       107.2       107.1       107.0       106.9       106.8    
        106.6       106.5       106.4       106.3       106.1       106.0       105.9       105.8       105.7       105.6    
        105.6       105.6       105.6       105.6       105.6       105.6       105.7       105.7       105.8       105.9    
        105.9       106.0       106.1       106.1       106.2    
  38    107.5       107.5       107.5       107.4       107.3       107.2       107.1       107.0       106.8       106.7    
        106.6       106.5       106.4       106.2       106.1       106.0       105.9       105.8       105.6       105.6    
        105.6       105.6       105.6       105.6       105.6       105.6       105.6       105.7       105.8       105.8    
        105.9       106.0       106.0       106.1       106.2    
  39    107.5       107.5       107.5       107.4       107.3       107.2       107.1       106.9       106.8       106.7    
        106.6       106.4       106.3       106.2       106.1       106.0       105.8       105.7       105.6       105.6    
        105.6       105.6       105.6       105.6       105.6       105.6       105.6       105.7       105.8       105.8    
        105.9       106.0       106.0       106.1       106.2    
  40    107.5       107.5       107.5       107.4       107.3       107.1       107.0       106.9       106.8       106.7    
        106.5       106.4       106.3       106.2       106.0       105.9       105.8       105.7       105.6       105.6    
        105.6       105.6       105.6       105.6       105.6       105.6       105.6       105.7       105.7       105.8    
        105.9       105.9       106.0       106.1       106.1    
  41    107.5       107.5       107.5       107.3       107.2       107.1       107.0       106.9       106.7       106.6    
        106.5       106.4       106.3       106.1       106.0       105.9       105.8       105.7       105.6       105.6    
        105.6       105.6       105.6       105.6       105.6       105.6       105.6       105.7       105.7       105.8    
        105.9       105.9       106.0       106.1       106.1    
  42    107.5       107.5       107.4       107.3       107.2       107.1       107.0       106.8       106.7       106.6    
        106.5       106.3       106.2       106.1       106.0       105.9       105.7       105.6       105.6       105.6    
        105.6       105.6       105.6       105.6       105.6       105.6       105.6       105.6       105.7       105.8    
        105.8       105.9       106.0       106.0       106.1    
  43    107.5       107.5       107.4       107.3       107.2       107.0       106.9       106.8       106.7       106.6    
        106.4       106.3       106.2       106.1       105.9       105.8       105.7       105.6       105.6       105.6    
        105.6       105.6       105.6       105.6       105.6       105.6       105.6       105.6       105.7       105.8    
        105.8       105.9       106.0       106.0       106.1    
  44    107.5       107.5       107.4       107.2       107.1       107.0       106.9       106.8       106.6       106.5    
        106.4       106.3       106.2       106.0       105.9       105.8       105.7       105.6       105.6       105.6    
        105.6       105.6       105.6       105.6       105.6       105.6       105.6       105.6       105.7       105.7    
        105.8       105.9       105.9       106.0       106.1    
  45    107.5       107.5       107.3       107.2       107.1       107.0       106.9       106.7       106.6       106.5    
        106.4       106.2       106.1       106.0       105.9       105.8       105.6       105.6       105.6       105.6    
        105.6       105.6       105.6       105.6       105.6       105.6       105.6       105.6       105.7       105.7    
        105.8       105.9       105.9       106.0       106.1    



             MODEL LAYER BOTTOM EL. FOR LAYER   4
 READING ON UNIT   12 WITH FORMAT: (FREE)              

            1           2           3           4           5           6           7           8           9          10
           11          12          13          14          15          16          17          18          19          20
           21          22          23          24          25          26          27          28          29          30
           31          32          33          34          35
 ........................................................................................................................
   1    105.9       105.9       105.9       105.9       105.9       105.9       106.0       106.0       106.0       106.0    
        106.0       106.0       106.0       106.0       106.0       106.0       106.0       106.0       106.0       106.0    
        106.0       106.0       106.0       105.9       105.8       105.7       105.7       105.6       105.5       105.4    
        105.3       105.3       105.2       105.1       105.0    
   2    105.9       105.9       105.9       105.9       105.9       105.9       106.0       106.0       106.0       106.0    
        106.0       106.0       106.0       106.0       106.0       106.0       106.0       106.0       106.0       106.0    
        106.0       106.0       105.9       105.8       105.8       105.7       105.6       105.5       105.4       105.4    
        105.3       105.2       105.1       105.0       105.0    
   3    105.9       105.9       105.9       105.9       105.9       105.9       106.0       106.0       106.0       106.0    
        106.0       106.0       106.0       106.0       106.0       106.0       106.0       106.0       106.0       106.0    
        106.0       105.9       105.8       105.8       105.7       105.6       105.5       105.4       105.4       105.3    
        105.2       105.1       105.0       105.0       104.9    
   4    105.9       105.9       105.9       105.9       105.9       105.9       105.9       106.0       106.0       106.0    
        106.0       106.0       106.0       106.0       106.0       106.0       106.0       106.0       106.0       106.0    
        105.9       105.8       105.8       105.7       105.6       105.5       105.5       105.4       105.3       105.2    
        105.1       105.1       105.0       104.9       104.8    
   5    105.9       105.9       105.9       105.9       105.9       105.9       105.9       106.0       106.0       106.0    
        106.0       106.0       106.0       106.0       106.0       106.0       106.0       106.0       106.0       105.9    
        105.9       105.8       105.7       105.6       105.5       105.5       105.4       105.3       105.2       105.1    
        105.1       105.0       104.9       104.8       104.8    
   6    105.9       105.9       105.9       105.9       105.9       105.9       105.9       106.0       106.0       106.0    
        106.0       106.0       106.0       106.0       106.0       106.0       106.0       106.0       105.9       105.9    
        105.8       105.7       105.6       105.5       105.5       105.4       105.3       105.2       105.2       105.1    
        105.0       104.9       104.8       104.8       104.7    
   7    105.9       105.9       105.9       105.9       105.9       105.9       105.9       105.9       106.0       106.0    
        106.0       106.0       106.0       106.0       106.0       106.0       106.0       105.9       105.9       105.8    
        105.7       105.6       105.6       105.5       105.4       105.3       105.2       105.2       105.1       105.0    
        104.9       104.8       104.8       104.7       104.6    
   8    105.9       105.9       105.9       105.9       105.9       105.9       105.9       105.9       106.0       106.0    
        106.0       106.0       106.0       106.0       105.9       105.9       105.9       105.8       105.8       105.7    
        105.6       105.6       105.5       105.4       105.3       105.2       105.2       105.1       105.0       104.9    
        104.9       104.8       104.7       104.6       104.5    
   9    105.9       105.9       105.9       105.9       105.9       105.9       105.9       105.9       106.0       105.9    
        105.9       105.9       105.9       105.9       105.8       105.8       105.7       105.7       105.6       105.6    
        105.6       105.5       105.4       105.3       105.3       105.2       105.1       105.0       104.9       104.9    
        104.8       104.7       104.6       104.5       104.5    
  10    105.9       105.9       105.9       105.9       105.9       105.9       105.9       105.9       105.9       105.9    
        105.8       105.8       105.8       105.8       105.7       105.7       105.6       105.6       105.5       105.5    
        105.4       105.4       105.3       105.3       105.2       105.1       105.0       104.9       104.9       104.8    
        104.7       104.6       104.6       104.5       104.4    
  11    105.8       105.8       105.8       105.9       105.9       105.9       105.9       105.8       105.8       105.8    
        105.8       105.7       105.7       105.7       105.6       105.6       105.5       105.5       105.4       105.4    
        105.3       105.3       105.2       105.2       105.1       105.0       105.0       104.9       104.8       104.7    
        104.6       104.6       104.5       104.4       104.3    
  12    105.8       105.8       105.8       105.8       105.8       105.8       105.8       105.8       105.7       105.7    
        105.7       105.7       105.6       105.5       105.5       105.4       105.4       105.3       105.3       105.2    
        105.2       105.1       105.1       105.1       105.0       105.0       104.9       104.8       104.7       104.6    
        104.6       104.5       104.4       104.3       104.3    
  13    105.8       105.8       105.8       105.8       105.8       105.7       105.6       105.6       105.6       105.6    
        105.6       105.5       105.5       105.4       105.4       105.3       105.3       105.2       105.2       105.1    
        105.1       105.0       105.0       104.9       104.9       104.9       104.8       104.7       104.7       104.6    
        104.5       104.4       104.3       104.3       104.2    
  14    105.8       105.8       105.8       105.7       105.5       105.3       105.2       105.2       105.1       105.1    
        105.2       105.4       105.4       105.3       105.3       105.2       105.2       105.1       105.1       105.0    
        105.0       104.9       104.9       104.8       104.8       104.7       104.7       104.7       104.6       104.5    
        104.4       104.3       104.3       104.2       104.1    
  15    105.8       105.8       105.6       105.4       105.2       105.0       104.8       104.7       104.7       104.7    
        104.8       105.0       105.2       105.2       105.2       105.1       105.1       105.0       105.0       104.9    
        104.9       104.8       104.8       104.7       104.7       104.6       104.6       104.6       104.5       104.4    
        104.4       104.3       104.2       104.1       104.0    
  16    105.6       105.4       105.2       105.0       104.8       104.6       104.4       104.2       104.2       104.2    
        104.4       104.6       104.8       104.9       105.1       105.0       105.0       104.9       104.9       104.8    
        104.8       104.7       104.7       104.6       104.6       104.5       104.5       104.4       104.4       104.4    
        104.3       104.2       104.1       104.0       104.0    
  17    105.2       105.0       104.8       104.6       104.4       104.2       104.0       103.8       103.7       103.8    
        104.0       104.2       104.4       104.5       104.7       104.9       104.9       104.9       104.8       104.7    
        104.7       104.6       104.6       104.5       104.5       104.4       104.4       104.3       104.3       104.3    
        104.2       104.1       104.1       104.0       103.9    
  18    104.8       104.6       104.4       104.2       104.0       103.8       103.6       103.4       103.3       103.4    
        103.6       103.8       103.9       104.1       104.3       104.5       104.6       104.8       104.7       104.7    
        104.6       104.5       104.5       104.4       104.4       104.3       104.3       104.2       104.2       104.1    
        104.1       104.1       104.0       103.9       103.9    
  19    104.4       104.2       104.0       103.8       103.6       103.4       103.3       103.3       103.3       103.3    
        103.4       103.4       103.5       103.7       103.9       104.1       104.2       104.4       104.6       104.6    
        104.5       104.5       104.4       104.3       104.3       104.2       104.2       104.2       104.1       104.1    
        104.0       104.0       103.9       103.9       103.9    
  20    104.1       103.9       103.7       103.5       103.3       103.3       103.3       103.3       103.3       103.3    
        103.4       103.5       103.5       103.6       103.6       103.7       103.8       104.0       104.2       104.3    
        104.4       104.4       104.3       104.3       104.2       104.2       104.1       104.1       104.0       104.0    
        103.9       103.9       103.9       103.9       103.9    
  21    103.7       103.5       103.3       103.3       103.3       103.3       103.3       103.3       103.3       103.4    
        103.4       103.5       103.5       103.6       103.6       103.7       103.8       103.8       103.9       103.9    
        104.1       104.3       104.2       104.2       104.1       104.1       104.0       104.0       104.0       104.0    
        103.9       103.9       103.9       103.9       103.9    
  22    103.3       103.3       103.3       103.3       103.3       103.3       103.3       103.3       103.3       103.4    
        103.4       103.5       103.5       103.6       103.7       103.7       103.8       103.8       103.9       103.9    
        104.0       104.1       104.1       104.1       104.1       104.1       104.0       104.0       104.0       104.0    
        103.9       103.9       103.9       103.9       103.9    
  23    103.3       103.3       103.3       103.3       103.3       103.3       103.3       103.3       103.3       103.4    
        103.4       103.5       103.6       103.6       103.7       103.7       103.8       103.8       103.9       104.0    
        104.0       104.1       104.1       104.1       104.1       104.1       104.0       104.0       104.0       104.0    
        103.9       103.9       103.9       103.9       103.9    
  24    103.3       103.3       103.3       103.3       103.3       103.3       103.3       103.3       103.3       103.4    
        103.5       103.5       103.6       103.6       103.7       103.7       103.8       103.9       103.9       104.0    
        104.0       104.1       104.1       104.1       104.1       104.1       104.1       104.0       104.0       104.0    
        104.0       103.9       103.9       103.9       103.9    
  25    103.3       103.3       103.3       103.3       103.3       103.3       103.3       103.3       103.4       103.4    
        103.5       103.5       103.6       103.6       103.7       103.8       103.8       103.9       103.9       104.0    
        104.0       104.1       104.1       104.1       104.1       104.1       104.1       104.0       104.0       104.0    
        104.0       103.9       103.9       103.9       103.9    
  26    103.3       103.3       103.3       103.3       103.3       103.3       103.3       103.3       103.4       103.4    
        103.5       103.6       103.6       103.7       103.7       103.8       103.8       103.9       103.9       104.0    
        104.1       104.1       104.1       104.1       104.1       104.1       104.1       104.0       104.0       104.0    
        104.0       103.9       103.9       103.9       103.9    
  27    103.3       103.3       103.3       103.3       103.3       103.3       103.3       103.3       103.4       103.5    
        103.5       103.6       103.6       103.7       103.7       103.8       103.9       103.9       104.0       104.0    
        104.1       104.1       104.1       104.1       104.1       104.1       104.1       104.0       104.0       104.0    
        104.0       103.9       103.9       103.9       103.9    
  28    103.3       103.3       103.3       103.3       103.3       103.3       103.3       103.4       103.4       103.5    
        103.5       103.6       103.6       103.7       103.8       103.8       103.9       103.9       104.0       104.0    
        104.1       104.1       104.1       104.1       104.1       104.1       104.1       104.1       104.0       104.0    
        104.0       104.0       103.9       103.9       103.9    
  29    103.3       103.3       103.3       103.3       103.3       103.3       103.3       103.4       103.4       103.5    
        103.5       103.6       103.7       103.7       103.8       103.8       103.9       103.9       104.0       104.1    
        104.1       104.1       104.1       104.1       104.1       104.1       104.1       104.1       104.0       104.0    
        104.0       104.0       103.9       103.9       103.9    
  30    103.3       103.3       103.3       103.3       103.3       103.3       103.3       103.4       103.4       103.5    
        103.6       103.6       103.7       103.7       103.8       103.8       103.9       104.0       104.0       104.1    
        104.1       104.1       104.1       104.1       104.1       104.1       104.1       104.1       104.0       104.0    
        104.0       104.0       103.9       103.9       103.9    
  31    103.3       103.3       103.3       103.3       103.3       103.3       103.3       103.4       103.5       103.5    
        103.6       103.6       103.7       103.7       103.8       103.9       103.9       104.0       104.0       104.1    
        104.1       104.1       104.1       104.1       104.1       104.1       104.1       104.1       104.0       104.0    
        104.0       104.0       103.9       103.9       103.9    
  32    103.3       103.3       103.3       103.3       103.3       103.3       103.4       103.4       103.5       103.5    
        103.6       103.6       103.7       103.8       103.8       103.9       103.9       104.0       104.0       104.1    
        104.1       104.1       104.1       104.1       104.1       104.1       104.1       104.1       104.1       104.0    
        104.0       104.0       104.0       103.9       103.9    
  33    103.3       103.3       103.3       103.3       103.3       103.3       103.4       103.4       103.5       103.5    
        103.6       103.7       103.7       103.8       103.8       103.9       103.9       104.0       104.1       104.1    
        104.1       104.1       104.1       104.1       104.1       104.1       104.1       104.1       104.1       104.0    
        104.0       104.0       104.0       103.9       103.9    
  34    103.3       103.3       103.3       103.3       103.3       103.3       103.4       103.4       103.5       103.6    
        103.6       103.7       103.7       103.8       103.8       103.9       104.0       104.0       104.1       104.1    
        104.1       104.1       104.1       104.1       104.1       104.1       104.1       104.1       104.1       104.0    
        104.0       104.0       104.0       103.9       103.9    
  35    103.3       103.3       103.3       103.3       103.3       103.4       103.4       103.5       103.5       103.6    
        103.6       103.7       103.7       103.8       103.9       103.9       104.0       104.0       104.1       104.1    
        104.1       104.1       104.1       104.1       104.1       104.1       104.1       104.1       104.1       104.0    
        104.0       104.0       104.0       103.9       103.9    
  36    103.3       103.3       103.3       103.3       103.3       103.4       103.4       103.5       103.5       103.6    
        103.7       103.7       103.8       103.8       103.9       103.9       104.0       104.0       104.1       104.1    
        104.1       104.1       104.1       104.1       104.1       104.1       104.1       104.1       104.1       104.1    
        104.0       104.0       104.0       104.0       103.9    
  37    103.3       103.3       103.3       103.3       103.3       103.4       103.4       103.5       103.6       103.6    
        103.7       103.7       103.8       103.8       103.9       104.0       104.0       104.1       104.1       104.1    
        104.1       104.1       104.1       104.1       104.1       104.1       104.1       104.1       104.1       104.1    
        104.0       104.0       104.0       104.0       103.9    
  38    103.3       103.3       103.3       103.3       103.3       103.4       103.5       103.5       103.6       103.6    
        103.7       103.7       103.8       103.9       103.9       104.0       104.0       104.1       104.1       104.1    
        104.1       104.1       104.1       104.1       104.1       104.1       104.1       104.1       104.1       104.1    
        104.0       104.0       104.0       104.0       103.9    
  39    103.3       103.3       103.3       103.3       103.4       103.4       103.5       103.5       103.6       103.6    
        103.7       103.8       103.8       103.9       103.9       104.0       104.0       104.1       104.1       104.1    
        104.1       104.1       104.1       104.1       104.1       104.1       104.1       104.1       104.1       104.1    
        104.0       104.0       104.0       104.0       103.9    
  40    103.3       103.3       103.3       103.3       103.4       103.4       103.5       103.5       103.6       103.7    
        103.7       103.8       103.8       103.9       103.9       104.0       104.1       104.1       104.1       104.1    
        104.1       104.1       104.1       104.1       104.1       104.1       104.1       104.1       104.1       104.1    
        104.0       104.0       104.0       104.0       104.0    
  41    103.3       103.3       103.3       103.3       103.4       103.4       103.5       103.6       103.6       103.7    
        103.7       103.8       103.8       103.9       104.0       104.0       104.1       104.1       104.1       104.1    
        104.1       104.1       104.1       104.1       104.1       104.1       104.1       104.1       104.1       104.1    
        104.1       104.0       104.0       104.0       104.0    
  42    103.3       103.3       103.3       103.3       103.4       103.5       103.5       103.6       103.6       103.7    
        103.7       103.8       103.9       103.9       104.0       104.0       104.1       104.1       104.1       104.1    
        104.1       104.1       104.1       104.1       104.1       104.1       104.1       104.1       104.1       104.1    
        104.1       104.0       104.0       104.0       104.0    
  43    103.3       103.3       103.3       103.4       103.4       103.5       103.5       103.6       103.6       103.7    
        103.8       103.8       103.9       103.9       104.0       104.0       104.1       104.1       104.1       104.1    
        104.1       104.1       104.1       104.1       104.1       104.1       104.1       104.1       104.1       104.1    
        104.1       104.0       104.0       104.0       104.0    
  44    103.3       103.3       103.3       103.4       103.4       103.5       103.5       103.6       103.7       103.7    
        103.8       103.8       103.9       103.9       104.0       104.1       104.1       104.1       104.1       104.1    
        104.1       104.1       104.1       104.1       104.1       104.1       104.1       104.1       104.1       104.1    
        104.1       104.0       104.0       104.0       104.0    
  45    103.3       103.3       103.3       103.4       103.5       103.5       103.6       103.6       103.7       103.7    
        103.8       103.8       103.9       104.0       104.0       104.1       104.1       104.1       104.1       104.1    
        104.1       104.1       104.1       104.1       104.1       104.1       104.1       104.1       104.1       104.1    
        104.1       104.1       104.0       104.0       104.0    



             MODEL LAYER BOTTOM EL. FOR LAYER   5
 READING ON UNIT   12 WITH FORMAT: (FREE)              

            1           2           3           4           5           6           7           8           9          10
           11          12          13          14          15          16          17          18          19          20
           21          22          23          24          25          26          27          28          29          30
           31          32          33          34          35
 ........................................................................................................................
   1    105.3       105.3       105.3       105.3       105.3       105.3       105.4       105.4       105.4       105.4    
        105.4       105.4       105.4       105.4       105.4       105.4       105.4       105.4       105.4       105.4    
        105.4       105.4       105.4       105.3       105.2       105.1       105.0       104.9       104.8       104.7    
        104.7       104.6       104.5       104.4       104.3    
   2    105.3       105.3       105.3       105.3       105.3       105.3       105.3       105.4       105.4       105.4    
        105.4       105.4       105.4       105.4       105.4       105.4       105.4       105.4       105.4       105.4    
        105.4       105.4       105.3       105.2       105.1       105.0       104.9       104.8       104.8       104.7    
        104.6       104.5       104.4       104.3       104.2    
   3    105.3       105.3       105.3       105.3       105.3       105.3       105.3       105.4       105.4       105.4    
        105.4       105.4       105.4       105.4       105.4       105.4       105.4       105.4       105.4       105.4    
        105.4       105.3       105.2       105.1       105.0       104.9       104.9       104.8       104.7       104.6    
        104.5       104.4       104.3       104.2       104.1    
   4    105.3       105.3       105.3       105.3       105.3       105.3       105.3       105.4       105.4       105.4    
        105.4       105.4       105.4       105.4       105.4       105.4       105.4       105.4       105.4       105.4    
        105.3       105.2       105.1       105.0       105.0       104.9       104.8       104.7       104.6       104.5    
        104.4       104.3       104.2       104.1       104.0    
   5    105.3       105.3       105.3       105.3       105.3       105.3       105.3       105.3       105.4       105.4    
        105.4       105.4       105.4       105.4       105.4       105.4       105.4       105.4       105.4       105.3    
        105.2       105.1       105.1       105.0       104.9       104.8       104.7       104.6       104.5       104.4    
        104.3       104.2       104.1       104.1       104.0    
   6    105.3       105.3       105.3       105.3       105.3       105.3       105.3       105.3       105.4       105.4    
        105.4       105.4       105.4       105.4       105.4       105.4       105.4       105.4       105.3       105.2    
        105.2       105.1       105.0       104.9       104.8       104.7       104.6       104.5       104.4       104.3    
        104.2       104.2       104.1       104.0       103.9    
   7    105.3       105.3       105.3       105.3       105.3       105.3       105.3       105.3       105.4       105.4    
        105.4       105.4       105.4       105.4       105.4       105.4       105.4       105.3       105.3       105.2    
        105.1       105.0       104.9       104.8       104.7       104.6       104.5       104.4       104.3       104.3    
        104.2       104.1       104.0       103.9       103.8    
   8    105.3       105.3       105.3       105.3       105.3       105.3       105.3       105.3       105.3       105.4    
        105.4       105.4       105.4       105.3       105.3       105.3       105.2       105.2       105.1       105.1    
        105.0       104.9       104.8       104.7       104.6       104.5       104.4       104.4       104.3       104.2    
        104.1       104.0       103.9       103.8       103.7    
   9    105.3       105.3       105.3       105.3       105.3       105.3       105.3       105.3       105.3       105.3    
        105.3       105.3       105.3       105.3       105.2       105.2       105.1       105.0       105.0       104.9    
        104.9       104.8       104.7       104.6       104.5       104.5       104.4       104.3       104.2       104.1    
        104.0       103.9       103.8       103.7       103.6    
  10    105.4       105.4       105.4       105.4       105.3       105.3       105.3       105.3       105.3       105.3    
        105.2       105.2       105.2       105.2       105.1       105.0       105.0       104.9       104.8       104.8    
        104.7       104.7       104.6       104.6       104.5       104.4       104.3       104.2       104.1       104.0    
        103.9       103.8       103.7       103.6       103.6    
  11    105.5       105.5       105.5       105.5       105.4       105.4       105.3       105.2       105.2       105.2    
        105.2       105.1       105.1       105.0       105.0       104.9       104.8       104.8       104.7       104.6    
        104.6       104.5       104.5       104.5       104.4       104.3       104.2       104.1       104.0       103.9    
        103.8       103.7       103.7       103.6       103.5    
  12    105.6       105.6       105.6       105.6       105.6       105.5       105.4       105.3       105.2       105.1    
        105.1       105.0       105.0       104.9       104.8       104.8       104.7       104.6       104.6       104.5    
        104.4       104.4       104.3       104.3       104.3       104.2       104.1       104.0       103.9       103.8    
        103.8       103.7       103.6       103.5       103.4    
  13    105.6       105.6       105.6       105.6       105.6       105.6       105.4       105.3       105.2       105.1    
        105.0       104.9       104.8       104.8       104.7       104.6       104.6       104.5       104.4       104.4    
        104.3       104.2       104.2       104.1       104.1       104.1       104.0       103.9       103.9       103.8    
        103.7       103.6       103.5       103.4       103.3    
  14    105.6       105.6       105.6       105.6       105.3       105.1       104.8       104.7       104.6       104.5    
        104.5       104.7       104.6       104.6       104.5       104.5       104.4       104.4       104.3       104.2    
        104.2       104.1       104.1       104.0       103.9       103.9       104.0       103.9       103.8       103.7    
        103.6       103.5       103.4       103.3       103.2    
  15    105.6       105.6       105.4       105.1       104.8       104.6       104.3       104.2       104.0       103.9    
        104.0       104.2       104.3       104.4       104.3       104.3       104.2       104.2       104.1       104.1    
        104.0       104.0       103.9       103.9       103.8       103.7       103.7       103.8       103.7       103.6    
        103.5       103.4       103.3       103.2       103.1    
  16    105.4       105.1       104.9       104.6       104.3       104.1       103.8       103.6       103.5       103.4    
        103.6       103.7       103.8       104.0       104.1       104.0       104.0       103.9       103.9       103.8    
        103.8       103.7       103.7       103.6       103.6       103.5       103.5       103.5       103.6       103.5    
        103.4       103.3       103.2       103.2       103.1    
  17    104.9       104.6       104.4       104.1       103.8       103.6       103.3       103.1       102.9       102.9    
        103.1       103.2       103.3       103.5       103.6       103.7       103.8       103.7       103.7       103.6    
        103.6       103.5       103.5       103.4       103.4       103.3       103.3       103.3       103.3       103.4    
        103.3       103.3       103.2       103.1       103.0    
  18    104.4       104.1       103.9       103.6       103.3       103.1       102.8       102.6       102.3       102.5    
        102.6       102.7       102.9       103.0       103.1       103.2       103.4       103.5       103.4       103.4    
        103.3       103.3       103.2       103.2       103.1       103.1       103.1       103.1       103.2       103.2    
        103.3       103.2       103.1       103.0       103.0    
  19    103.9       103.6       103.4       103.1       102.8       102.6       102.3       102.3       102.3       102.3    
        102.3       102.3       102.4       102.5       102.6       102.8       102.9       103.0       103.2       103.1    
        103.1       103.0       103.0       102.9       102.9       102.9       102.9       103.0       103.0       103.0    
        103.0       103.1       103.0       103.0       103.0    
  20    103.4       103.1       102.9       102.6       102.3       102.3       102.3       102.3       102.3       102.3    
        102.3       102.3       102.3       102.3       102.3       102.3       102.4       102.5       102.7       102.8    
        102.9       102.8       102.8       102.7       102.7       102.7       102.7       102.8       102.8       102.8    
        102.9       102.9       103.0       103.0       103.0    
  21    102.9       102.6       102.4       102.3       102.3       102.3       102.3       102.3       102.3       102.3    
        102.3       102.3       102.3       102.3       102.3       102.3       102.3       102.3       102.3       102.3    
        102.4       102.6       102.5       102.5       102.5       102.5       102.6       102.6       102.7       102.8    
        102.8       102.9       103.0       103.0       103.0    
  22    102.4       102.3       102.3       102.3       102.3       102.3       102.3       102.3       102.3       102.3    
        102.3       102.3       102.3       102.3       102.3       102.3       102.3       102.3       102.3       102.3    
        102.3       102.3       102.3       102.3       102.4       102.5       102.5       102.6       102.7       102.7    
        102.8       102.9       103.0       103.0       103.0    
  23    102.3       102.3       102.3       102.3       102.3       102.3       102.3       102.3       102.3       102.3    
        102.3       102.3       102.3       102.3       102.3       102.3       102.3       102.3       102.3       102.3    
        102.3       102.3       102.3       102.3       102.4       102.5       102.5       102.6       102.7       102.7    
        102.8       102.9       102.9       103.0       103.0    
  24    102.3       102.3       102.3       102.3       102.3       102.3       102.3       102.3       102.3       102.3    
        102.3       102.3       102.3       102.3       102.3       102.3       102.3       102.3       102.3       102.3    
        102.3       102.3       102.3       102.3       102.4       102.4       102.5       102.6       102.6       102.7    
        102.8       102.9       102.9       103.0       103.0    
  25    102.3       102.3       102.3       102.3       102.3       102.3       102.3       102.3       102.3       102.3    
        102.3       102.3       102.3       102.3       102.3       102.3       102.3       102.3       102.3       102.3    
        102.3       102.3       102.3       102.3       102.4       102.4       102.5       102.6       102.6       102.7    
        102.8       102.8       102.9       103.0       103.0    
  26    102.3       102.3       102.3       102.3       102.3       102.3       102.3       102.3       102.3       102.3    
        102.3       102.3       102.3       102.3       102.3       102.3       102.3       102.3       102.3       102.3    
        102.3       102.3       102.3       102.3       102.3       102.4       102.5       102.5       102.6       102.7    
        102.8       102.8       102.9       103.0       103.0    
  27    102.3       102.3       102.3       102.3       102.3       102.3       102.3       102.3       102.3       102.3    
        102.3       102.3       102.3       102.3       102.3       102.3       102.3       102.3       102.3       102.3    
        102.3       102.3       102.3       102.3       102.3       102.4       102.5       102.5       102.6       102.7    
        102.7       102.8       102.9       102.9       103.0    
  28    102.3       102.3       102.3       102.3       102.3       102.3       102.3       102.3       102.3       102.3    
        102.3       102.3       102.3       102.3       102.3       102.3       102.3       102.3       102.3       102.3    
        102.3       102.3       102.3       102.3       102.3       102.4       102.4       102.5       102.6       102.7    
        102.7       102.8       102.9       102.9       103.0    
  29    102.3       102.3       102.3       102.3       102.3       102.3       102.3       102.3       102.3       102.3    
        102.3       102.3       102.3       102.3       102.3       102.3       102.3       102.3       102.3       102.3    
        102.3       102.3       102.3       102.3       102.3       102.4       102.4       102.5       102.6       102.6    
        102.7       102.8       102.8       102.9       103.0    
  30    102.3       102.3       102.3       102.3       102.3       102.3       102.3       102.3       102.3       102.3    
        102.3       102.3       102.3       102.3       102.3       102.3       102.3       102.3       102.3       102.3    
        102.3       102.3       102.3       102.3       102.3       102.3       102.4       102.5       102.6       102.6    
        102.7       102.8       102.8       102.9       103.0    
  31    102.3       102.3       102.3       102.3       102.3       102.3       102.3       102.3       102.3       102.3    
        102.3       102.3       102.3       102.3       102.3       102.3       102.3       102.3       102.3       102.3    
        102.3       102.3       102.3       102.3       102.3       102.3       102.4       102.5       102.5       102.6    
        102.7       102.7       102.8       102.9       102.9    
  32    102.3       102.3       102.3       102.3       102.3       102.3       102.3       102.3       102.3       102.3    
        102.3       102.3       102.3       102.3       102.3       102.3       102.3       102.3       102.3       102.3    
        102.3       102.3       102.3       102.3       102.3       102.3       102.4       102.4       102.5       102.6    
        102.7       102.7       102.8       102.9       102.9    
  33    102.3       102.3       102.3       102.3       102.3       102.3       102.3       102.3       102.3       102.3    
        102.3       102.3       102.3       102.3       102.3       102.3       102.3       102.3       102.3       102.3    
        102.3       102.3       102.3       102.3       102.3       102.3       102.4       102.4       102.5       102.6    
        102.6       102.7       102.8       102.8       102.9    
  34    102.3       102.3       102.3       102.3       102.3       102.3       102.3       102.3       102.3       102.3    
        102.3       102.3       102.3       102.3       102.3       102.3       102.3       102.3       102.3       102.3    
        102.3       102.3       102.3       102.3       102.3       102.3       102.3       102.4       102.5       102.6    
        102.6       102.7       102.8       102.8       102.9    
  35    102.3       102.3       102.3       102.3       102.3       102.3       102.3       102.3       102.3       102.3    
        102.3       102.3       102.3       102.3       102.3       102.3       102.3       102.3       102.3       102.3    
        102.3       102.3       102.3       102.3       102.3       102.3       102.3       102.4       102.5       102.5    
        102.6       102.7       102.7       102.8       102.9    
  36    102.3       102.3       102.3       102.3       102.3       102.3       102.3       102.3       102.3       102.3    
        102.3       102.3       102.3       102.3       102.3       102.3       102.3       102.3       102.3       102.3    
        102.3       102.3       102.3       102.3       102.3       102.3       102.3       102.4       102.5       102.5    
        102.6       102.7       102.7       102.8       102.9    
  37    102.3       102.3       102.3       102.3       102.3       102.3       102.3       102.3       102.3       102.3    
        102.3       102.3       102.3       102.3       102.3       102.3       102.3       102.3       102.3       102.3    
        102.3       102.3       102.3       102.3       102.3       102.3       102.3       102.4       102.4       102.5    
        102.6       102.6       102.7       102.8       102.8    
  38    102.3       102.3       102.3       102.3       102.3       102.3       102.3       102.3       102.3       102.3    
        102.3       102.3       102.3       102.3       102.3       102.3       102.3       102.3       102.3       102.3    
        102.3       102.3       102.3       102.3       102.3       102.3       102.3       102.4       102.4       102.5    
        102.6       102.6       102.7       102.8       102.8    
  39    102.3       102.3       102.3       102.3       102.3       102.3       102.3       102.3       102.3       102.3    
        102.3       102.3       102.3       102.3       102.3       102.3       102.3       102.3       102.3       102.3    
        102.3       102.3       102.3       102.3       102.3       102.3       102.3       102.3       102.4       102.5    
        102.5       102.6       102.7       102.7       102.8    
  40    102.3       102.3       102.3       102.3       102.3       102.3       102.3       102.3       102.3       102.3    
        102.3       102.3       102.3       102.3       102.3       102.3       102.3       102.3       102.3       102.3    
        102.3       102.3       102.3       102.3       102.3       102.3       102.3       102.3       102.4       102.5    
        102.5       102.6       102.7       102.7       102.8    
  41    102.3       102.3       102.3       102.3       102.3       102.3       102.3       102.3       102.3       102.3    
        102.3       102.3       102.3       102.3       102.3       102.3       102.3       102.3       102.3       102.3    
        102.3       102.3       102.3       102.3       102.3       102.3       102.3       102.3       102.4       102.4    
        102.5       102.6       102.6       102.7       102.8    
  42    102.3       102.3       102.3       102.3       102.3       102.3       102.3       102.3       102.3       102.3    
        102.3       102.3       102.3       102.3       102.3       102.3       102.3       102.3       102.3       102.3    
        102.3       102.3       102.3       102.3       102.3       102.3       102.3       102.3       102.4       102.4    
        102.5       102.6       102.6       102.7       102.8    
  43    102.3       102.3       102.3       102.3       102.3       102.3       102.3       102.3       102.3       102.3    
        102.3       102.3       102.3       102.3       102.3       102.3       102.3       102.3       102.3       102.3    
        102.3       102.3       102.3       102.3       102.3       102.3       102.3       102.3       102.3       102.4    
        102.5       102.5       102.6       102.7       102.7    
  44    102.3       102.3       102.3       102.3       102.3       102.3       102.3       102.3       102.3       102.3    
        102.3       102.3       102.3       102.3       102.3       102.3       102.3       102.3       102.3       102.3    
        102.3       102.3       102.3       102.3       102.3       102.3       102.3       102.3       102.3       102.4    
        102.5       102.5       102.6       102.7       102.7    
  45    102.3       102.3       102.3       102.3       102.3       102.3       102.3       102.3       102.3       102.3    
        102.3       102.3       102.3       102.3       102.3       102.3       102.3       102.3       102.3       102.3    
        102.3       102.3       102.3       102.3       102.3       102.3       102.3       102.3       102.3       102.4    
        102.4       102.5       102.6       102.6       102.7    


 STRESS PERIOD     LENGTH       TIME STEPS     MULTIPLIER FOR DELT    SS FLAG
 ----------------------------------------------------------------------------
        1         86400.00          1                    1.000         SS
        2         86400.00          1                    1.000         TR
        3         86400.00          1                    1.000         TR
        4         86400.00          1                    1.000         TR
        5         345600.0          4                    1.000         TR
        6         86400.00          1                    1.000         TR
        7         86400.00          1                    1.000         TR
        8         86400.00          1                    1.000         TR
        9         259200.0          3                    1.000         TR
       10         86400.00          1                    1.000         TR
       11         86400.00          1                    1.000         TR
       12         86400.00          1                    1.000         TR
       13         86400.00          1                    1.000         TR
       14         259200.0          3                    1.000         TR
       15         86400.00          1                    1.000         TR
       16         86400.00          1                    1.000         TR
       17         86400.00          1                    1.000         TR
       18         86400.00          1                    1.000         TR
       19         259200.0          3                    1.000         TR
       20         86400.00          1                    1.000         TR
       21         86400.00          1                    1.000         TR
       22         86400.00          1                    1.000         TR
       23         345600.0          4                    1.000         TR
       24         86400.00          1                    1.000         TR
       25         86400.00          1                    1.000         TR
       26         86400.00          1                    1.000         TR
       27         86400.00          1                    1.000         TR
       28         259200.0          3                    1.000         TR
       29         86400.00          1                    1.000         TR
       30         86400.00          1                    1.000         TR
       31         86400.00          1                    1.000         TR
       32         86400.00          1                    1.000         TR
       33         259200.0          3                    1.000         TR
       34         86400.00          1                    1.000         TR
       35         86400.00          1                    1.000         TR
       36         86400.00          1                    1.000         TR
       37         86400.00          1                    1.000         TR
       38         86400.00          1                    1.000         TR
       39         172800.0          2                    1.000         TR
       40         86400.00          1                    1.000         TR
       41         86400.00          1                    1.000         TR
       42         86400.00          1                    1.000         TR
       43         86400.00          1                    1.000         TR
       44         86400.00          1                    1.000         TR
       45         172800.0          2                    1.000         TR
       46         86400.00          1                    1.000         TR
       47         86400.00          1                    1.000         TR
       48         86400.00          1                    1.000         TR
       49         86400.00          1                    1.000         TR
       50         86400.00          1                    1.000         TR
       51         86400.00          1                    1.000         TR
       52         86400.00          1                    1.000         TR
       53         86400.00          1                    1.000         TR
       54         86400.00          1                    1.000         TR
       55         86400.00          1                    1.000         TR
       56         86400.00          1                    1.000         TR
       57         86400.00          1                    1.000         TR
       58         86400.00          1                    1.000         TR
       59         86400.00          1                    1.000         TR
       60         86400.00          1                    1.000         TR
       61         86400.00          1                    1.000         TR
       62         86400.00          1                    1.000         TR
       63         345600.0          4                    1.000         TR
       64         86400.00          1                    1.000         TR
       65         86400.00          1                    1.000         TR
       66         86400.00          1                    1.000         TR
       67         86400.00          1                    1.000         TR
       68         86400.00          1                    1.000         TR
       69         172800.0          2                    1.000         TR
       70         86400.00          1                    1.000         TR
       71         86400.00          1                    1.000         TR
       72         86400.00          1                    1.000         TR
       73         86400.00          1                    1.000         TR
       74         345600.0          4                    1.000         TR
       75         86400.00          1                    1.000         TR
       76         86400.00          1                    1.000         TR
       77         86400.00          1                    1.000         TR
       78         259200.0          3                    1.000         TR
       79         86400.00          1                    1.000         TR
       80         86400.00          1                    1.000         TR
       81         86400.00          1                    1.000         TR
       82         345600.0          4                    1.000         TR
       83         86400.00          1                    1.000         TR
       84         86400.00          1                    1.000         TR
       85         86400.00          1                    1.000         TR
       86         86400.00          1                    1.000         TR
       87         259200.0          3                    1.000         TR
       88         86400.00          1                    1.000         TR
       89         86400.00          1                    1.000         TR
       90         86400.00          1                    1.000         TR
       91         345600.0          4                    1.000         TR
       92         86400.00          1                    1.000         TR
       93         86400.00          1                    1.000         TR
       94         86400.00          1                    1.000         TR
       95         86400.00          1                    1.000         TR
       96         259200.0          3                    1.000         TR
       97         86400.00          1                    1.000         TR
       98         86400.00          1                    1.000         TR
       99         86400.00          1                    1.000         TR
      100         86400.00          1                    1.000         TR
      101         345600.0          4                    1.000         TR
      102         86400.00          1                    1.000         TR
      103         86400.00          1                    1.000         TR
      104         86400.00          1                    1.000         TR
      105         259200.0          3                    1.000         TR
      106         86400.00          1                    1.000         TR
      107         86400.00          1                    1.000         TR
      108         86400.00          1                    1.000         TR
      109         172800.0          2                    1.000         TR
      110         172800.0          2                    1.000         TR
      111         86400.00          1                    1.000         TR
      112         86400.00          1                    1.000         TR
      113         86400.00          1                    1.000         TR
      114         86400.00          1                    1.000         TR
      115         259200.0          3                    1.000         TR
      116         86400.00          1                    1.000         TR
      117         86400.00          1                    1.000         TR
      118         86400.00          1                    1.000         TR
      119         86400.00          1                    1.000         TR
      120         259200.0          3                    1.000         TR
      121         86400.00          1                    1.000         TR
      122         172800.0          2                    1.000         TR
      123         86400.00          1                    1.000         TR
      124         259200.0          3                    1.000         TR
      125         86400.00          1                    1.000         TR
      126         86400.00          1                    1.000         TR
      127         86400.00          1                    1.000         TR
      128         86400.00          1                    1.000         TR
      129         259200.0          3                    1.000         TR
      130         86400.00          1                    1.000         TR
      131         86400.00          1                    1.000         TR
      132         86400.00          1                    1.000         TR

 COMBINED STEADY-STATE AND TRANSIENT SIMULATION




 # Basic Package file created on 07.07.2016 by ModelMuse version 3.7.1.0.        
 THE FREE FORMAT OPTION HAS BEEN SELECTED
 THE PRINTTIME OPTION HAS BEEN SELECTED
 CALCULATE FLOW BETWEEN ADJACENT CONSTANT-HEAD CELLS



                     BOUNDARY ARRAY FOR LAYER   1
 READING ON UNIT   13 WITH FORMAT: (FREE)              

          1     2     3     4     5     6     7     8     9    10    11    12    13    14    15    16    17    18    19    20
         21    22    23    24    25    26    27    28    29    30    31    32    33    34    35
 ............................................................................................................................
   1      0     0     0     0     0     0     0     0     0     0     0     0     0     0     0     0     0     0     0     0
          0     0     0     0     0     0     0     0     0     0     0     0     0     0     1
   2      0     0     0     0     0     0     0     0     0     0     0     0     0     0     0     0     1     1     1     1
          1     1     1     1     1     1     1     1     1     1     1     1     1     1     1
   3      1     1     1     1     1     1     1     1     1     1     1     1     1     1     1     1     1     1     1     1
          1     1     1     1     1     1     1     1     1     1     1     1     1     1     1
   4      1     1     1     1     1     1     1     1     1     1     1     1     1     1     1     1     1     1     1     1
          1     1     1     1     1     1     1     1     1     1     1     1     1     1     1
   5      1     1     1     1     1     1     1     1     1     1     1     1     1     1     1     1     1     1     1     1
          1     1     1     1     1     1     1     1     1     1     1     1     1     1     1
   6      1     1     1     1     1     1     1     1     1     1     1     1     1     1     1     1     1     1     1     1
          1     1     1     1     1     1     1     1     1     1     1     1     1     1     1
   7      1     1     1     1     1     1     1     1     1     1     1     1     1     1     1     1     1     1     1     1
          1     1     1     1     1     1     1     1     1     1     1     1     1     1     1
   8      1     1     1     1     1     1     1     1     1     1     1     1     1     1     1     1     1     1     1     1
          1     1     1     1     1     1     1     1     1     1     1     1     1     1     1
   9      1     1     1     1     1     1     1     1     1     1     1     1     1     1     1     1     1     1     1     1
          1     1     1     1     1     1     1     1     1     1     1     1     1     1     1
  10      1     1     1     1     1     1     1     1     1     1     1     1     1     1     1     1     1     1     1     1
          1     1     1     1     1     1     1     1     1     1     1     1     1     1     1
  11      1     1     1     1     1     1     1     1     1     1     1     1     1     1     1     1     1     1     1     1
          1     1     1     1     1     1     1     1     1     1     1     1     1     1     1
  12      1     1     1     1     1     1     1     1     1     1     1     1     1     1     1     1     1     1     1     1
          1     1     1     1     1     1     1     1     1     1     1     1     1     1     1
  13      1     1     1     1     1     1     1     1     1     1     1     1     1     1     1     1     1     1     1     1
          1     1     1     1     1     1     1     1     1     1     1     1     1     1     1
  14      1     1     1     1     1     1     1     1     1     1     1     1     1     1     1     1     1     1     1     1
          1     1     1     1     1     1     1     1     1     1     1     1     1     1     1
  15      1     1     1     1     1     1     1     1     1     1     1     1     1     1     1     1     1     1     1     1
          1     1     1     1     1     1     1     1     1     1     1     1     1     1     1
  16      1     1     1     1     1     1     1     1     1     1     1     1     1     1     1     1     1     1     1     1
          1     1     1     1     1     1     1     1     1     1     1     1     1     1     1
  17      1     1     1     1     1     1     1     1     1     1     1     1     1     1     1     1     1     1     1     1
          1     1     1     1     1     1     1     1     1     1     1     1     1     1     1
  18      1     1     1     1     1     1     1     1     1     1     1     1     1     1     1     1     1     1     1     1
          1     1     1     1     1     1     1     1     1     1     1     1     1     1     1
  19      1     1     1     1     1     1     1     1     1     1     1     1     1     1     1     1     1     1     1     1
          1     1     1     1     1     1     1     1     1     1     1     1     1     1     1
  20      1     1     1     1     1     1     1     1     1     1     1     1     1     1     1     1     1     1     1     1
          1     1     1     1     1     1     1     1     1     1     1     1     1     1     1
  21      1     1     1     1     1     1     1     1     1     1     1     1     1     1     1     1     1     1     1     1
          1     1     1     1     1     1     1     1     1     1     1     1     1     1     1
  22      1     1     1     1     1     1     1     1     1     1     1     1     1     1     1     1     1     1     1     1
          1     1     1     1     1     1     1     1     1     1     1     1     1     1     1
  23      1     1     1     1     1     1     1     1     1     1     1     1     1     1     1     1     1     1     1     1
          1     1     1     1     1     1     1     1     1     1     1     1     1     1     1
  24      1     1     1     1     1     1     1     1     1     1     1     1     1     1     1     1     1     1     1     1
          1     1     1     1     1     1     1     1     1     1     1     1     1     1     1
  25      1     1     1     1     1     1     1     1     1     1     1     1     1     1     1     1     1     1     1     1
          1     1     1     1     1     1     1     1     1     1     1     1     1     1     1
  26      1     1     1     1     1     1     1     1     1     1     1     1     1     1     1     1     1     1     1     1
          1     1     1     1     1     1     1     1     1     1     1     1     1     1     1
  27      1     1     1     1     1     1     1     1     1     1     1     1     1     1     1     1     1     1     1     1
          1     1     1     1     1     1     1     1     1     1     1     1     1     1     1
  28      1     1     1     1     1     1     1     1     1     1     1     1     1     1     1     1     1     1     1     1
          1     1     1     1     1     1     1     1     1     1     1     1     1     1     1
  29      1     1     1     1     1     1     1     1     1     1     1     1     1     1     1     1     1     1     1     1
          1     1     1     1     1     1     1     1     1     1     1     1     1     1     1
  30      1     1     1     1     1     1     1     1     1     1     1     1     1     1     1     1     1     1     1     1
          1     1     1     1     1     1     1     1     1     1     1     1     1     1     1
  31      1     1     1     1     1     1     1     1     1     1     1     1     1     1     1     1     1     1     1     1
          1     1     1     1     1     1     1     1     1     1     1     1     1     1     1
  32      1     1     1     1     1     1     1     1     1     1     1     1     1     1     1     1     1     1     1     1
          1     1     1     1     1     1     1     1     1     1     1     1     1     1     1
  33      1     1     1     1     1     1     1     1     1     1     1     1     1     1     1     1     1     1     1     1
          1     1     1     1     1     1     1     1     1     1     1     1     1     1     1
  34      1     1     1     1     1     1     1     1     1     1     1     1     1     1     1     1     1     1     1     1
          1     1     1     1     1     1     1     1     1     1     1     1     1     1     1
  35      1     1     1     1     1     1     1     1     1     1     1     1     1     1     1     1     1     1     1     1
          1     1     1     1     1     1     1     1     1     1     1     1     1     1     1
  36      1     1     1     1     1     1     1     1     1     1     1     1     1     1     1     1     1     1     1     1
          1     1     1     1     1     1     1     1     1     1     1     1     0     0     1
  37      1     1     1     1     1     1     1     1     1     1     1     1     1     1     1     1     1     1     1     1
          1     1     1     1     1     1     1     1     1     1     0     0     0     0     0
  38      1     1     1     1     1     1     1     1     1     1     1     1     1     1     1     1     1     1     1     1
          1     1     1     1     1     1     1     1     1     1     0     0     0     0     0
  39      1     1     1     1     1     1     1     1     1     1     1     1     1     1     1     1     1     1     1     1
          1     1     1     1     1     1     1     1     1     0     0     0     0     0     0
  40      1     1     1     1     1     1     1     1     1     1     1     1     1     1     1     1     1     1     1     1
          1     1     1     1     1     1     1     0     0     0     0     0     0     0     0
  41      1     1     1     1     1     1     1     1     1     1     1     1     1     1     1     1     1     1     1     1
          1     1     1     0     0     0     0     0     0     0     0     0     0     0     0
  42      1     1     1     1     1     1     1     1     1     1     1     1     1     1     1     1     1     1     0     1
          1     0     0     0     0     0     0     0     0     0     0     0     0     0     0
  43      1     1     1     1     1     1     1     1     1     1     1     1     0     0     0     0     0     0     0     0
          0     0     0     0     0     0     0     0     0     0     0     0     0     0     0
  44      1     1     1     1     1     0     0     0     0     0     0     0     0     0     0     0     0     0     0     0
          0     0     0     0     0     0     0     0     0     0     0     0     0     0     0
  45      1     0     0     0     0     0     0     0     0     0     0     0     0     0     0     0     0     0     0     0
          0     0     0     0     0     0     0     0     0     0     0     0     0     0     0



                     BOUNDARY ARRAY FOR LAYER   2
 READING ON UNIT   13 WITH FORMAT: (FREE)              

          1     2     3     4     5     6     7     8     9    10    11    12    13    14    15    16    17    18    19    20
         21    22    23    24    25    26    27    28    29    30    31    32    33    34    35
 ............................................................................................................................
   1      0     0     0     0     0     0     0     0     0     0     0     0     0     0     0     0     0     0     0     0
          0     0     0     0     0     0     0     0     0     0     0     0     0     0     1
   2      0     0     0     0     0     0     0     0     0     0     0     0     0     0     0     0     1     1     1     1
          1     1     1     1     1     1     1     1     1     1     1     1     1     1     1
   3      1     1     1     1     1     1     1     1     1     1     1     1     1     1     1     1     1     1     1     1
          1     1     1     1     1     1     1     1     1     1     1     1     1     1     1
   4      1     1     1     1     1     1     1     1     1     1     1     1     1     1     1     1     1     1     1     1
          1     1     1     1     1     1     1     1     1     1     1     1     1     1     1
   5      1     1     1     1     1     1     1     1     1     1     1     1     1     1     1     1     1     1     1     1
          1     1     1     1     1     1     1     1     1     1     1     1     1     1     1
   6      1     1     1     1     1     1     1     1     1     1     1     1     1     1     1     1     1     1     1     1
          1     1     1     1     1     1     1     1     1     1     1     1     1     1     1
   7      1     1     1     1     1     1     1     1     1     1     1     1     1     1     1     1     1     1     1     1
          1     1     1     1     1     1     1     1     1     1     1     1     1     1     1
   8      1     1     1     1     1     1     1     1     1     1     1     1     1     1     1     1     1     1     1     1
          1     1     1     1     1     1     1     1     1     1     1     1     1     1     1
   9      1     1     1     1     1     1     1     1     1     1     1     1     1     1     1     1     1     1     1     1
          1     1     1     1     1     1     1     1     1     1     1     1     1     1     1
  10      1     1     1     1     1     1     1     1     1     1     1     1     1     1     1     1     1     1     1     1
          1     1     1     1     1     1     1     1     1     1     1     1     1     1     1
  11      1     1     1     1     1     1     1     1     1     1     1     1     1     1     1     1     1     1     1     1
          1     1     1     1     1     1     1     1     1     1     1     1     1     1     1
  12      1     1     1     1     1     1     1     1     1     1     1     1     1     1     1     1     1     1     1     1
          1     1     1     1     1     1     1     1     1     1     1     1     1     1     1
  13      1     1     1     1     1     1     1     1     1     1     1     1     1     1     1     1     1     1     1     1
          1     1     1     1     1     1     1     1     1     1     1     1     1     1     1
  14      1     1     1     1     1     1     1     1     1     1     1     1     1     1     1     1     1     1     1     1
          1     1     1     1     1     1     1     1     1     1     1     1     1     1     1
  15      1     1     1     1     1     1     1     1     1     1     1     1     1     1     1     1     1     1     1     1
          1     1     1     1     1     1     1     1     1     1     1     1     1     1     1
  16      1     1     1     1     1     1     1     1     1     1     1     1     1     1     1     1     1     1     1     1
          1     1     1     1     1     1     1     1     1     1     1     1     1     1     1
  17      1     1     1     1     1     1     1     1     1     1     1     1     1     1     1     1     1     1     1     1
          1     1     1     1     1     1     1     1     1     1     1     1     1     1     1
  18      1     1     1     1     1     1     1     1     1     1     1     1     1     1     1     1     1     1     1     1
          1     1     1     1     1     1     1     1     1     1     1     1     1     1     1
  19      1     1     1     1     1     1     1     1     1     1     1     1     1     1     1     1     1     1     1     1
          1     1     1     1     1     1     1     1     1     1     1     1     1     1     1
  20      1     1     1     1     1     1     1     1     1     1     1     1     1     1     1     1     1     1     1     1
          1     1     1     1     1     1     1     1     1     1     1     1     1     1     1
  21      1     1     1     1     1     1     1     1     1     1     1     1     1     1     1     1     1     1     1     1
          1     1     1     1     1     1     1     1     1     1     1     1     1     1     1
  22      1     1     1     1     1     1     1     1     1     1     1     1     1     1     1     1     1     1     1     1
          1     1     1     1     1     1     1     1     1     1     1     1     1     1     1
  23      1     1     1     1     1     1     1     1     1     1     1     1     1     1     1     1     1     1     1     1
          1     1     1     1     1     1     1     1     1     1     1     1     1     1     1
  24      1     1     1     1     1     1     1     1     1     1     1     1     1     1     1     1     1     1     1     1
          1     1     1     1     1     1     1     1     1     1     1     1     1     1     1
  25      1     1     1     1     1     1     1     1     1     1     1     1     1     1     1     1     1     1     1     1
          1     1     1     1     1     1     1     1     1     1     1     1     1     1     1
  26      1     1     1     1     1     1     1     1     1     1     1     1     1     1     1     1     1     1     1     1
          1     1     1     1     1     1     1     1     1     1     1     1     1     1     1
  27      1     1     1     1     1     1     1     1     1     1     1     1     1     1     1     1     1     1     1     1
          1     1     1     1     1     1     1     1     1     1     1     1     1     1     1
  28      1     1     1     1     1     1     1     1     1     1     1     1     1     1     1     1     1     1     1     1
          1     1     1     1     1     1     1     1     1     1     1     1     1     1     1
  29      1     1     1     1     1     1     1     1     1     1     1     1     1     1     1     1     1     1     1     1
          1     1     1     1     1     1     1     1     1     1     1     1     1     1     1
  30      1     1     1     1     1     1     1     1     1     1     1     1     1     1     1     1     1     1     1     1
          1     1     1     1     1     1     1     1     1     1     1     1     1     1     1
  31      1     1     1     1     1     1     1     1     1     1     1     1     1     1     1     1     1     1     1     1
          1     1     1     1     1     1     1     1     1     1     1     1     1     1     1
  32      1     1     1     1     1     1     1     1     1     1     1     1     1     1     1     1     1     1     1     1
          1     1     1     1     1     1     1     1     1     1     1     1     1     1     1
  33      1     1     1     1     1     1     1     1     1     1     1     1     1     1     1     1     1     1     1     1
          1     1     1     1     1     1     1     1     1     1     1     1     1     1     1
  34      1     1     1     1     1     1     1     1     1     1     1     1     1     1     1     1     1     1     1     1
          1     1     1     1     1     1     1     1     1     1     1     1     1     1     1
  35      1     1     1     1     1     1     1     1     1     1     1     1     1     1     1     1     1     1     1     1
          1     1     1     1     1     1     1     1     1     1     1     1     1     1     1
  36      1     1     1     1     1     1     1     1     1     1     1     1     1     1     1     1     1     1     1     1
          1     1     1     1     1     1     1     1     1     1     1     1     0     0     1
  37      1     1     1     1     1     1     1     1     1     1     1     1     1     1     1     1     1     1     1     1
          1     1     1     1     1     1     1     1     1     1     0     0     0     0     0
  38      1     1     1     1     1     1     1     1     1     1     1     1     1     1     1     1     1     1     1     1
          1     1     1     1     1     1     1     1     1     1     0     0     0     0     0
  39      1     1     1     1     1     1     1     1     1     1     1     1     1     1     1     1     1     1     1     1
          1     1     1     1     1     1     1     1     1     0     0     0     0     0     0
  40      1     1     1     1     1     1     1     1     1     1     1     1     1     1     1     1     1     1     1     1
          1     1     1     1     1     1     1     0     0     0     0     0     0     0     0
  41      1     1     1     1     1     1     1     1     1     1     1     1     1     1     1     1     1     1     1     1
          1     1     1     0     0     0     0     0     0     0     0     0     0     0     0
  42      1     1     1     1     1     1     1     1     1     1     1     1     1     1     1     1     1     1     0     1
          1     0     0     0     0     0     0     0     0     0     0     0     0     0     0
  43      1     1     1     1     1     1     1     1     1     1     1     1     0     0     0     0     0     0     0     0
          0     0     0     0     0     0     0     0     0     0     0     0     0     0     0
  44      1     1     1     1     1     0     0     0     0     0     0     0     0     0     0     0     0     0     0     0
          0     0     0     0     0     0     0     0     0     0     0     0     0     0     0
  45      1     0     0     0     0     0     0     0     0     0     0     0     0     0     0     0     0     0     0     0
          0     0     0     0     0     0     0     0     0     0     0     0     0     0     0



                     BOUNDARY ARRAY FOR LAYER   3
 READING ON UNIT   13 WITH FORMAT: (FREE)              

          1     2     3     4     5     6     7     8     9    10    11    12    13    14    15    16    17    18    19    20
         21    22    23    24    25    26    27    28    29    30    31    32    33    34    35
 ............................................................................................................................
   1      0     0     0     0     0     0     0     0     0     0     0     0     0     0     0     0     0     0     0     0
          0     0     0     0     0     0     0     0     0     0     0     0     0     0     1
   2      0     0     0     0     0     0     0     0     0     0     0     0     0     0     0     0     1     1     1     1
          1     1     1     1     1     1     1     1     1     1     1     1     1     1     1
   3      1     1     1     1     1     1     1     1     1     1     1     1     1     1     1     1     1     1     1     1
          1     1     1     1     1     1     1     1     1     1     1     1     1     1     1
   4      1     1     1     1     1     1     1     1     1     1     1     1     1     1     1     1     1     1     1     1
          1     1     1     1     1     1     1     1     1     1     1     1     1     1     1
   5      1     1     1     1     1     1     1     1     1     1     1     1     1     1     1     1     1     1     1     1
          1     1     1     1     1     1     1     1     1     1     1     1     1     1     1
   6      1     1     1     1     1     1     1     1     1     1     1     1     1     1     1     1     1     1     1     1
          1     1     1     1     1     1     1     1     1     1     1     1     1     1     1
   7      1     1     1     1     1     1     1     1     1     1     1     1     1     1     1     1     1     1     1     1
          1     1     1     1     1     1     1     1     1     1     1     1     1     1     1
   8      1     1     1     1     1     1     1     1     1     1     1     1     1     1     1     1     1     1     1     1
          1     1     1     1     1     1     1     1     1     1     1     1     1     1     1
   9      1     1     1     1     1     1     1     1     1     1     1     1     1     1     1     1     1     1     1     1
          1     1     1     1     1     1     1     1     1     1     1     1     1     1     1
  10      1     1     1     1     1     1     1     1     1     1     1     1     1     1     1     1     1     1     1     1
          1     1     1     1     1     1     1     1     1     1     1     1     1     1     1
  11      1     1     1     1     1     1     1     1     1     1     1     1     1     1     1     1     1     1     1     1
          1     1     1     1     1     1     1     1     1     1     1     1     1     1     1
  12      1     1     1     1     1     1     1     1     1     1     1     1     1     1     1     1     1     1     1     1
          1     1     1     1     1     1     1     1     1     1     1     1     1     1     1
  13      1     1     1     1     1     1     1     1     1     1     1     1     1     1     1     1     1     1     1     1
          1     1     1     1     1     1     1     1     1     1     1     1     1     1     1
  14      1     1     1     1     1     1     1     1     1     1     1     1     1     1     1     1     1     1     1     1
          1     1     1     1     1     1     1     1     1     1     1     1     1     1     1
  15      1     1     1     1     1     1     1     1     1     1     1     1     1     1     1     1     1     1     1     1
          1     1     1     1     1     1     1     1     1     1     1     1     1     1     1
  16      1     1     1     1     1     1     1     1     1     1     1     1     1     1     1     1     1     1     1     1
          1     1     1     1     1     1     1     1     1     1     1     1     1     1     1
  17      1     1     1     1     1     1     1     1     1     1     1     1     1     1     1     1     1     1     1     1
          1     1     1     1     1     1     1     1     1     1     1     1     1     1     1
  18      1     1     1     1     1     1     1     1     1     1     1     1     1     1     1     1     1     1     1     1
          1     1     1     1     1     1     1     1     1     1     1     1     1     1     1
  19      1     1     1     1     1     1     1     1     1     1     1     1     1     1     1     1     1     1     1     1
          1     1     1     1     1     1     1     1     1     1     1     1     1     1     1
  20      1     1     1     1     1     1     1     1     1     1     1     1     1     1     1     1     1     1     1     1
          1     1     1     1     1     1     1     1     1     1     1     1     1     1     1
  21      1     1     1     1     1     1     1     1     1     1     1     1     1     1     1     1     1     1     1     1
          1     1     1     1     1     1     1     1     1     1     1     1     1     1     1
  22      1     1     1     1     1     1     1     1     1     1     1     1     1     1     1     1     1     1     1     1
          1     1     1     1     1     1     1     1     1     1     1     1     1     1     1
  23      1     1     1     1     1     1     1     1     1     1     1     1     1     1     1     1     1     1     1     1
          1     1     1     1     1     1     1     1     1     1     1     1     1     1     1
  24      1     1     1     1     1     1     1     1     1     1     1     1     1     1     1     1     1     1     1     1
          1     1     1     1     1     1     1     1     1     1     1     1     1     1     1
  25      1     1     1     1     1     1     1     1     1     1     1     1     1     1     1     1     1     1     1     1
          1     1     1     1     1     1     1     1     1     1     1     1     1     1     1
  26      1     1     1     1     1     1     1     1     1     1     1     1     1     1     1     1     1     1     1     1
          1     1     1     1     1     1     1     1     1     1     1     1     1     1     1
  27      1     1     1     1     1     1     1     1     1     1     1     1     1     1     1     1     1     1     1     1
          1     1     1     1     1     1     1     1     1     1     1     1     1     1     1
  28      1     1     1     1     1     1     1     1     1     1     1     1     1     1     1     1     1     1     1     1
          1     1     1     1     1     1     1     1     1     1     1     1     1     1     1
  29      1     1     1     1     1     1     1     1     1     1     1     1     1     1     1     1     1     1     1     1
          1     1     1     1     1     1     1     1     1     1     1     1     1     1     1
  30      1     1     1     1     1     1     1     1     1     1     1     1     1     1     1     1     1     1     1     1
          1     1     1     1     1     1     1     1     1     1     1     1     1     1     1
  31      1     1     1     1     1     1     1     1     1     1     1     1     1     1     1     1     1     1     1     1
          1     1     1     1     1     1     1     1     1     1     1     1     1     1     1
  32      1     1     1     1     1     1     1     1     1     1     1     1     1     1     1     1     1     1     1     1
          1     1     1     1     1     1     1     1     1     1     1     1     1     1     1
  33      1     1     1     1     1     1     1     1     1     1     1     1     1     1     1     1     1     1     1     1
          1     1     1     1     1     1     1     1     1     1     1     1     1     1     1
  34      1     1     1     1     1     1     1     1     1     1     1     1     1     1     1     1     1     1     1     1
          1     1     1     1     1     1     1     1     1     1     1     1     1     1     1
  35      1     1     1     1     1     1     1     1     1     1     1     1     1     1     1     1     1     1     1     1
          1     1     1     1     1     1     1     1     1     1     1     1     1     1     1
  36      1     1     1     1     1     1     1     1     1     1     1     1     1     1     1     1     1     1     1     1
          1     1     1     1     1     1     1     1     1     1     1     1     0     0     1
  37      1     1     1     1     1     1     1     1     1     1     1     1     1     1     1     1     1     1     1     1
          1     1     1     1     1     1     1     1     1     1     0     0     0     0     0
  38      1     1     1     1     1     1     1     1     1     1     1     1     1     1     1     1     1     1     1     1
          1     1     1     1     1     1     1     1     1     1     0     0     0     0     0
  39      1     1     1     1     1     1     1     1     1     1     1     1     1     1     1     1     1     1     1     1
          1     1     1     1     1     1     1     1     1     0     0     0     0     0     0
  40      1     1     1     1     1     1     1     1     1     1     1     1     1     1     1     1     1     1     1     1
          1     1     1     1     1     1     1     0     0     0     0     0     0     0     0
  41      1     1     1     1     1     1     1     1     1     1     1     1     1     1     1     1     1     1     1     1
          1     1     1     0     0     0     0     0     0     0     0     0     0     0     0
  42      1     1     1     1     1     1     1     1     1     1     1     1     1     1     1     1     1     1     0     1
          1     0     0     0     0     0     0     0     0     0     0     0     0     0     0
  43      1     1     1     1     1     1     1     1     1     1     1     1     0     0     0     0     0     0     0     0
          0     0     0     0     0     0     0     0     0     0     0     0     0     0     0
  44      1     1     1     1     1     0     0     0     0     0     0     0     0     0     0     0     0     0     0     0
          0     0     0     0     0     0     0     0     0     0     0     0     0     0     0
  45      1     0     0     0     0     0     0     0     0     0     0     0     0     0     0     0     0     0     0     0
          0     0     0     0     0     0     0     0     0     0     0     0     0     0     0



                     BOUNDARY ARRAY FOR LAYER   4
 READING ON UNIT   13 WITH FORMAT: (FREE)              

          1     2     3     4     5     6     7     8     9    10    11    12    13    14    15    16    17    18    19    20
         21    22    23    24    25    26    27    28    29    30    31    32    33    34    35
 ............................................................................................................................
   1      0     0     0     0     0     0     0     0     0     0     0     0     0     0     0     0     0     0     0     0
          0     0     0     0     0     1     1     1     1     1     1     1     1     1     1
   2      0     0     0     0     0     0     0     1     1     1     1     1     1     1     1     1     1     1     1     1
          1     1     1     1     1     1     1     1     1     1     1     1     1     1     1
   3      1     1     1     1     1     1     1     1     1     1     1     1     1     1     1     1     1     1     1     1
          1     1     1     1     1     1     1     1     1     1     1     1     1     1     1
   4      1     1     1     1     1     1     1     1     1     1     1     1     1     1     1     1     1     1     1     1
          1     1     1     1     1     1     1     1     1     1     1     1     1     1     1
   5      1     1     1     1     1     1     1     1     1     1     1     1     1     1     1     1     1     1     1     1
          1     1     1     1     1     1     1     1     1     1     1     1     1     1     1
   6      1     1     1     1     1     1     1     1     1     1     1     1     1     1     1     1     1     1     1     1
          1     1     1     1     1     1     1     1     1     1     1     1     1     1     1
   7      1     1     1     1     1     1     1     1     1     1     1     1     1     1     1     1     1     1     1     1
          1     1     1     1     1     1     1     1     1     1     1     1     1     1     1
   8      1     1     1     1     1     1     1     1     1     1     1     1     1     1     1     1     1     1     1     1
          1     1     1     1     1     1     1     1     1     1     1     1     1     1     1
   9      1     1     1     1     1     1     1     1     1     1     1     1     1     1     1     1     1     1     1     1
          1     1     1     1     1     1     1     1     1     1     1     1     1     1     1
  10      1     1     1     1     1     1     1     1     1     1     1     1     1     1     1     1     1     1     1     1
          1     1     1     1     1     1     1     1     1     1     1     1     1     1     1
  11      1     1     1     1     1     1     1     1     1     1     1     1     1     1     1     1     1     1     1     1
          1     1     1     1     1     1     1     1     1     1     1     1     1     1     1
  12      1     1     1     1     1     1     1     1     1     1     1     1     1     1     1     1     1     1     1     1
          1     1     1     1     1     1     1     1     1     1     1     1     1     1     1
  13      1     1     1     1     1     1     1     1     1     1     1     1     1     1     1     1     1     1     1     1
          1     1     1     1     1     1     1     1     1     1     1     1     1     1     1
  14      1     1     1     1     1     1     1     1     1     1     1     1     1     1     1     1     1     1     1     1
          1     1     1     1     1     1     1     1     1     1     1     1     1     1     1
  15      1     1     1     1     1     1     1     1     1     1     1     1     1     1     1     1     1     1     1     1
          1     1     1     1     1     1     1     1     1     1     1     1     1     1     1
  16      1     1     1     1     1     1     1     1     1     1     1     1     1     1     1     1     1     1     1     1
          1     1     1     1     1     1     1     1     1     1     1     1     1     1     1
  17      1     1     1     1     1     1     1     1     1     1     1     1     1     1     1     1     1     1     1     1
          1     1     1     1     1     1     1     1     1     1     1     1     1     1     1
  18      1     1     1     1     1     1     1     1     1     1     1     1     1     1     1     1     1     1     1     1
          1     1     1     1     1     1     1     1     1     1     1     1     1     1     1
  19      1     1     1     1     1     1     1     1     1     1     1     1     1     1     1     1     1     1     1     1
          1     1     1     1     1     1     1     1     1     1     1     1     1     1     1
  20      1     1     1     1     1     1     1     1     1     1     1     1     1     1     1     1     1     1     1     1
          1     1     1     1     1     1     1     1     1     1     1     1     1     1     1
  21      1     1     1     1     1     1     1     1     1     1     1     1     1     1     1     1     1     1     1     1
          1     1     1     1     1     1     1     1     1     1     1     1     1     1     1
  22      1     1     1     1     1     1     1     1     1     1     1     1     1     1     1     1     1     1     1     1
          1     1     1     1     1     1     1     1     1     1     1     1     1     1     1
  23      1     1     1     1     1     1     1     1     1     1     1     1     1     1     1     1     1     1     1     1
          1     1     1     1     1     1     1     1     1     1     1     1     1     1     1
  24      1     1     1     1     1     1     1     1     1     1     1     1     1     1     1     1     1     1     1     1
          1     1     1     1     1     1     1     1     1     1     1     1     1     1     1
  25      1     1     1     1     1     1     1     1     1     1     1     1     1     1     1     1     1     1     1     1
          1     1     1     1     1     1     1     1     1     1     1     1     1     1     1
  26      1     1     1     1     1     1     1     1     1     1     1     1     1     1     1     1     1     1     1     1
          1     1     1     1     1     1     1     1     1     1     1     1     1     1     1
  27      1     1     1     1     1     1     1     1     1     1     1     1     1     1     1     1     1     1     1     1
          1     1     1     1     1     1     1     1     1     1     1     1     1     1     1
  28      1     1     1     1     1     1     1     1     1     1     1     1     1     1     1     1     1     1     1     1
          1     1     1     1     1     1     1     1     1     1     1     1     1     1     1
  29      1     1     1     1     1     1     1     1     1     1     1     1     1     1     1     1     1     1     1     1
          1     1     1     1     1     1     1     1     1     1     1     1     1     1     1
  30      1     1     1     1     1     1     1     1     1     1     1     1     1     1     1     1     1     1     1     1
          1     1     1     1     1     1     1     1     1     1     1     1     1     1     1
  31      1     1     1     1     1     1     1     1     1     1     1     1     1     1     1     1     1     1     1     1
          1     1     1     1     1     1     1     1     1     1     1     1     1     1     1
  32      1     1     1     1     1     1     1     1     1     1     1     1     1     1     1     1     1     1     1     1
          1     1     1     1     1     1     1     1     1     1     1     1     1     1     1
  33      1     1     1     1     1     1     1     1     1     1     1     1     1     1     1     1     1     1     1     1
          1     1     1     1     1     1     1     1     1     1     1     1     1     1     1
  34      1     1     1     1     1     1     1     1     1     1     1     1     1     1     1     1     1     1     1     1
          1     1     1     1     1     1     1     1     1     1     1     1     1     1     1
  35      1     1     1     1     1     1     1     1     1     1     1     1     1     1     1     1     1     1     1     1
          1     1     1     1     1     1     1     1     1     1     1     1     1     1     1
  36      1     1     1     1     1     1     1     1     1     1     1     1     1     1     1     1     1     1     1     1
          1     1     1     1     1     1     1     1     1     1     1     1     1     1     1
  37      1     1     1     1     1     1     1     1     1     1     1     1     1     1     1     1     1     1     1     1
          1     1     1     1     1     1     1     1     1     1     1     1     0     0     0
  38      1     1     1     1     1     1     1     1     1     1     1     1     1     1     1     1     1     1     1     1
          1     1     1     1     1     1     1     1     1     1     1     0     0     0     0
  39      1     1     1     1     1     1     1     1     1     1     1     1     1     1     1     1     1     1     1     1
          1     1     1     1     1     1     1     1     1     1     0     0     0     0     0
  40      1     1     1     1     1     1     1     1     1     1     1     1     1     1     1     1     1     1     1     1
          1     1     1     1     1     1     1     1     1     0     0     0     0     0     0
  41      1     1     1     1     1     1     1     1     1     1     1     1     1     1     1     1     1     1     1     1
          1     1     1     1     1     1     1     0     0     0     0     0     0     0     0
  42      1     1     1     1     1     1     1     1     1     1     1     1     1     1     1     1     1     1     1     1
          1     1     0     0     0     0     0     0     0     0     0     0     0     0     0
  43      1     1     1     1     1     1     1     1     1     1     1     1     1     1     1     0     0     1     0     0
          0     0     0     0     0     0     0     0     0     0     0     0     0     0     0
  44      1     1     1     1     1     1     1     1     1     1     0     0     0     0     0     0     0     0     0     0
          0     0     0     0     0     0     0     0     0     0     0     0     0     0     0
  45      1     1     1     0     0     0     0     0     0     0     0     0     0     0     0     0     0     0     0     0
          0     0     0     0     0     0     0     0     0     0     0     0     0     0     0



                     BOUNDARY ARRAY FOR LAYER   5
 READING ON UNIT   13 WITH FORMAT: (FREE)              

          1     2     3     4     5     6     7     8     9    10    11    12    13    14    15    16    17    18    19    20
         21    22    23    24    25    26    27    28    29    30    31    32    33    34    35
 ............................................................................................................................
   1      0     0     0     0     0     0     0     0     0     0     0     0     0     0     0     0     0     0     0     0
          0     0     0     0     0     1     1     1     1     1     1     1     1     1     1
   2      0     0     0     0     0     0     0     1     1     1     1     1     1     1     1     1     1     1     1     1
          1     1     1     1     1     1     1     1     1     1     1     1     1     1     1
   3      1     1     1     1     1     1     1     1     1     1     1     1     1     1     1     1     1     1     1     1
          1     1     1     1     1     1     1     1     1     1     1     1     1     1     1
   4      1     1     1     1     1     1     1     1     1     1     1     1     1     1     1     1     1     1     1     1
          1     1     1     1     1     1     1     1     1     1     1     1     1     1     1
   5      1     1     1     1     1     1     1     1     1     1     1     1     1     1     1     1     1     1     1     1
          1     1     1     1     1     1     1     1     1     1     1     1     1     1     1
   6      1     1     1     1     1     1     1     1     1     1     1     1     1     1     1     1     1     1     1     1
          1     1     1     1     1     1     1     1     1     1     1     1     1     1     1
   7      1     1     1     1     1     1     1     1     1     1     1     1     1     1     1     1     1     1     1     1
          1     1     1     1     1     1     1     1     1     1     1     1     1     1     1
   8      1     1     1     1     1     1     1     1     1     1     1     1     1     1     1     1     1     1     1     1
          1     1     1     1     1     1     1     1     1     1     1     1     1     1     1
   9      1     1     1     1     1     1     1     1     1     1     1     1     1     1     1     1     1     1     1     1
          1     1     1     1     1     1     1     1     1     1     1     1     1     1     1
  10      1     1     1     1     1     1     1     1     1     1     1     1     1     1     1     1     1     1     1     1
          1     1     1     1     1     1     1     1     1     1     1     1     1     1     1
  11      1     1     1     1     1     1     1     1     1     1     1     1     1     1     1     1     1     1     1     1
          1     1     1     1     1     1     1     1     1     1     1     1     1     1     1
  12      1     1     1     1     1     1     1     1     1     1     1     1     1     1     1     1     1     1     1     1
          1     1     1     1     1     1     1     1     1     1     1     1     1     1     1
  13      1     1     1     1     1     1     1     1     1     1     1     1     1     1     1     1     1     1     1     1
          1     1     1     1     1     1     1     1     1     1     1     1     1     1     1
  14      1     1     1     1     1     1     1     1     1     1     1     1     1     1     1     1     1     1     1     1
          1     1     1     1     1     1     1     1     1     1     1     1     1     1     1
  15      1     1     1     1     1     1     1     1     1     1     1     1     1     1     1     1     1     1     1     1
          1     1     1     1     1     1     1     1     1     1     1     1     1     1     1
  16      1     1     1     1     1     1     1     1     1     1     1     1     1     1     1     1     1     1     1     1
          1     1     1     1     1     1     1     1     1     1     1     1     1     1     1
  17      1     1     1     1     1     1     1     1     1     1     1     1     1     1     1     1     1     1     1     1
          1     1     1     1     1     1     1     1     1     1     1     1     1     1     1
  18      1     1     1     1     1     1     1     1     1     1     1     1     1     1     1     1     1     1     1     1
          1     1     1     1     1     1     1     1     1     1     1     1     1     1     1
  19      1     1     1     1     1     1     1     1     1     1     1     1     1     1     1     1     1     1     1     1
          1     1     1     1     1     1     1     1     1     1     1     1     1     1     1
  20      1     1     1     1     1     1     1     1     1     1     1     1     1     1     1     1     1     1     1     1
          1     1     1     1     1     1     1     1     1     1     1     1     1     1     1
  21      1     1     1     1     1     1     1     1     1     1     1     1     1     1     1     1     1     1     1     1
          1     1     1     1     1     1     1     1     1     1     1     1     1     1     1
  22      1     1     1     1     1     1     1     1     1     1     1     1     1     1     1     1     1     1     1     1
          1     1     1     1     1     1     1     1     1     1     1     1     1     1     1
  23      1     1     1     1     1     1     1     1     1     1     1     1     1     1     1     1     1     1     1     1
          1     1     1     1     1     1     1     1     1     1     1     1     1     1     1
  24      1     1     1     1     1     1     1     1     1     1     1     1     1     1     1     1     1     1     1     1
          1     1     1     1     1     1     1     1     1     1     1     1     1     1     1
  25      1     1     1     1     1     1     1     1     1     1     1     1     1     1     1     1     1     1     1     1
          1     1     1     1     1     1     1     1     1     1     1     1     1     1     1
  26      1     1     1     1     1     1     1     1     1     1     1     1     1     1     1     1     1     1     1     1
          1     1     1     1     1     1     1     1     1     1     1     1     1     1     1
  27      1     1     1     1     1     1     1     1     1     1     1     1     1     1     1     1     1     1     1     1
          1     1     1     1     1     1     1     1     1     1     1     1     1     1     1
  28      1     1     1     1     1     1     1     1     1     1     1     1     1     1     1     1     1     1     1     1
          1     1     1     1     1     1     1     1     1     1     1     1     1     1     1
  29      1     1     1     1     1     1     1     1     1     1     1     1     1     1     1     1     1     1     1     1
          1     1     1     1     1     1     1     1     1     1     1     1     1     1     1
  30      1     1     1     1     1     1     1     1     1     1     1     1     1     1     1     1     1     1     1     1
          1     1     1     1     1     1     1     1     1     1     1     1     1     1     1
  31      1     1     1     1     1     1     1     1     1     1     1     1     1     1     1     1     1     1     1     1
          1     1     1     1     1     1     1     1     1     1     1     1     1     1     1
  32      1     1     1     1     1     1     1     1     1     1     1     1     1     1     1     1     1     1     1     1
          1     1     1     1     1     1     1     1     1     1     1     1     1     1     1
  33      1     1     1     1     1     1     1     1     1     1     1     1     1     1     1     1     1     1     1     1
          1     1     1     1     1     1     1     1     1     1     1     1     1     1     1
  34      1     1     1     1     1     1     1     1     1     1     1     1     1     1     1     1     1     1     1     1
          1     1     1     1     1     1     1     1     1     1     1     1     1     1     1
  35      1     1     1     1     1     1     1     1     1     1     1     1     1     1     1     1     1     1     1     1
          1     1     1     1     1     1     1     1     1     1     1     1     1     1     1
  36      1     1     1     1     1     1     1     1     1     1     1     1     1     1     1     1     1     1     1     1
          1     1     1     1     1     1     1     1     1     1     1     1     1     1     1
  37      1     1     1     1     1     1     1     1     1     1     1     1     1     1     1     1     1     1     1     1
          1     1     1     1     1     1     1     1     1     1     1     1     0     0     0
  38      1     1     1     1     1     1     1     1     1     1     1     1     1     1     1     1     1     1     1     1
          1     1     1     1     1     1     1     1     1     1     1     0     0     0     0
  39      1     1     1     1     1     1     1     1     1     1     1     1     1     1     1     1     1     1     1     1
          1     1     1     1     1     1     1     1     1     1     0     0     0     0     0
  40      1     1     1     1     1     1     1     1     1     1     1     1     1     1     1     1     1     1     1     1
          1     1     1     1     1     1     1     1     1     0     0     0     0     0     0
  41      1     1     1     1     1     1     1     1     1     1     1     1     1     1     1     1     1     1     1     1
          1     1     1     1     1     1     1     0     0     0     0     0     0     0     0
  42      1     1     1     1     1     1     1     1     1     1     1     1     1     1     1     1     1     1     1     1
          1     1     0     0     0     0     0     0     0     0     0     0     0     0     0
  43      1     1     1     1     1     1     1     1     1     1     1     1     1     1     1     0     0     1     0     0
          0     0     0     0     0     0     0     0     0     0     0     0     0     0     0
  44      1     1     1     1     1     1     1     1     1     1     0     0     0     0     0     0     0     0     0     0
          0     0     0     0     0     0     0     0     0     0     0     0     0     0     0
  45      1     1     1     0     0     0     0     0     0     0     0     0     0     0     0     0     0     0     0     0
          0     0     0     0     0     0     0     0     0     0     0     0     0     0     0

 AQUIFER HEAD WILL BE SET TO -2.00000E+20 AT ALL NO-FLOW NODES (IBOUND=0).



                       INITIAL HEAD FOR LAYER   1
 READING ON UNIT   13 WITH FORMAT: (FREE)              

            1           2           3           4           5           6           7           8           9          10
           11          12          13          14          15          16          17          18          19          20
           21          22          23          24          25          26          27          28          29          30
           31          32          33          34          35
 ........................................................................................................................
   1    110.7       110.7       110.7       110.7       110.7       110.7       110.7       110.7       110.7       110.7    
        110.8       110.8       110.8       110.8       110.8       110.8       110.8       110.8       110.8       110.8    
        110.8       110.8       110.8       110.7       110.7       110.7       110.7       110.7       110.7       110.7    
        110.7       110.7       110.7       110.7       110.7    
   2    110.7       110.7       110.7       110.7       110.7       110.7       110.7       110.7       110.7       110.7    
        110.8       110.8       110.8       110.8       110.8       110.8       110.8       110.8       110.8       110.8    
        110.8       110.8       110.8       110.7       110.7       110.7       110.7       110.7       110.7       110.7    
        110.7       110.7       110.7       110.7       110.7    
   3    110.7       110.7       110.7       110.7       110.7       110.7       110.7       110.7       110.7       110.7    
        110.7       110.8       110.8       110.8       110.8       110.8       110.8       110.8       110.8       110.8    
        110.8       110.8       110.7       110.7       110.7       110.7       110.7       110.7       110.7       110.7    
        110.7       110.7       110.7       110.7       110.7    
   4    110.7       110.7       110.7       110.7       110.7       110.7       110.7       110.7       110.7       110.7    
        110.7       110.8       110.8       110.8       110.8       110.8       110.8       110.8       110.8       110.8    
        110.8       110.8       110.7       110.7       110.7       110.7       110.7       110.7       110.7       110.7    
        110.7       110.7       110.7       110.7       110.7    
   5    110.7       110.7       110.7       110.7       110.7       110.7       110.7       110.7       110.7       110.7    
        110.7       110.8       110.8       110.8       110.8       110.8       110.8       110.8       110.8       110.8    
        110.8       110.7       110.7       110.7       110.7       110.7       110.7       110.7       110.7       110.7    
        110.7       110.7       110.7       110.7       110.7    
   6    110.7       110.7       110.7       110.7       110.7       110.7       110.7       110.7       110.7       110.7    
        110.7       110.7       110.8       110.8       110.8       110.8       110.8       110.8       110.8       110.8    
        110.7       110.7       110.7       110.7       110.7       110.7       110.7       110.7       110.7       110.7    
        110.7       110.7       110.7       110.7       110.7    
   7    110.7       110.7       110.7       110.7       110.7       110.7       110.7       110.7       110.7       110.7    
        110.7       110.7       110.7       110.8       110.8       110.8       110.8       110.8       110.8       110.7    
        110.7       110.7       110.7       110.7       110.7       110.7       110.7       110.7       110.7       110.7    
        110.7       110.7       110.7       110.7       110.7    
   8    110.7       110.7       110.7       110.7       110.7       110.7       110.7       110.7       110.7       110.7    
        110.7       110.7       110.7       110.7       110.7       110.7       110.7       110.7       110.7       110.7    
        110.7       110.7       110.7       110.7       110.7       110.7       110.7       110.7       110.7       110.7    
        110.7       110.7       110.7       110.7       110.7    
   9    110.7       110.7       110.7       110.7       110.7       110.7       110.7       110.7       110.7       110.7    
        110.7       110.7       110.7       110.7       110.7       110.7       110.7       110.7       110.7       110.7    
        110.7       110.7       110.7       110.7       110.7       110.7       110.7       110.7       110.7       110.7    
        110.7       110.7       110.7       110.7       110.7    
  10    110.7       110.7       110.7       110.7       110.7       110.7       110.7       110.7       110.7       110.7    
        110.7       110.7       110.7       110.7       110.7       110.7       110.7       110.7       110.7       110.7    
        110.7       110.7       110.7       110.7       110.7       110.7       110.7       110.7       110.7       110.7    
        110.7       110.7       110.7       110.7       110.7    
  11    110.7       110.7       110.7       110.7       110.7       110.7       110.7       110.7       110.7       110.7    
        110.7       110.7       110.7       110.7       110.7       110.7       110.7       110.7       110.7       110.7    
        110.7       110.7       110.7       110.7       110.7       110.7       110.7       110.7       110.7       110.7    
        110.7       110.7       110.7       110.7       110.7    
  12    110.7       110.7       110.7       110.7       110.7       110.7       110.7       110.7       110.7       110.7    
        110.7       110.7       110.7       110.7       110.7       110.7       110.7       110.7       110.7       110.7    
        110.7       110.7       110.7       110.7       110.7       110.7       110.7       110.7       110.7       110.7    
        110.7       110.7       110.7       110.7       110.7    
  13    110.7       110.7       110.7       110.7       110.7       110.7       110.7       110.7       110.7       110.7    
        110.7       110.7       110.7       110.7       110.7       110.7       110.7       110.7       110.7       110.7    
        110.7       110.7       110.7       110.7       110.7       110.7       110.7       110.7       110.7       110.7    
        110.7       110.7       110.7       110.7       110.7    
  14    110.7       110.7       110.7       110.7       110.7       110.7       110.7       110.7       110.7       110.7    
        110.7       110.7       110.7       110.7       110.7       110.7       110.7       110.7       110.7       110.7    
        110.7       110.7       110.7       110.7       110.7       110.7       110.7       110.7       110.7       110.7    
        110.7       110.7       110.7       110.7       110.7    
  15    110.7       110.7       110.7       110.7       110.7       110.7       110.7       110.7       110.7       110.7    
        110.7       110.7       110.7       110.7       110.7       110.7       110.7       110.7       110.7       110.7    
        110.7       110.7       110.7       110.7       110.7       110.7       110.7       110.7       110.7       110.7    
        110.7       110.7       110.7       110.7       110.7    
  16    110.7       110.7       110.7       110.7       110.7       110.7       110.7       110.7       110.7       110.7    
        110.7       110.7       110.7       110.7       110.7       110.7       110.7       110.7       110.7       110.7    
        110.7       110.7       110.7       110.7       110.7       110.7       110.7       110.7       110.7       110.7    
        110.7       110.7       110.7       110.7       110.7    
  17    110.7       110.7       110.7       110.7       110.7       110.7       110.7       110.7       110.7       110.7    
        110.7       110.7       110.7       110.7       110.7       110.7       110.7       110.7       110.7       110.7    
        110.7       110.7       110.7       110.7       110.7       110.7       110.7       110.7       110.7       110.7    
        110.7       110.7       110.7       110.7       110.7    
  18    110.7       110.7       110.7       110.7       110.7       110.7       110.7       110.7       110.7       110.7    
        110.7       110.7       110.7       110.7       110.7       110.7       110.7       110.7       110.7       110.7    
        110.7       110.7       110.7       110.7       110.7       110.7       110.7       110.7       110.7       110.7    
        110.7       110.7       110.7       110.7       110.7    
  19    110.7       110.7       110.7       110.7       110.7       110.7       110.7       110.7       110.7       110.7    
        110.7       110.7       110.7       110.7       110.7       110.7       110.7       110.7       110.7       110.7    
        110.7       110.7       110.7       110.7       110.7       110.7       110.7       110.7       110.7       110.7    
        110.7       110.7       110.7       110.7       110.7    
  20    110.7       110.7       110.7       110.7       110.7       110.7       110.7       110.7       110.7       110.7    
        110.7       110.7       110.7       110.7       110.7       110.7       110.7       110.7       110.7       110.7    
        110.7       110.7       110.7       110.7       110.7       110.7       110.7       110.7       110.7       110.7    
        110.7       110.7       110.7       110.7       110.7    
  21    110.7       110.7       110.7       110.7       110.7       110.7       110.7       110.7       110.7       110.7    
        110.7       110.7       110.7       110.7       110.7       110.7       110.7       110.7       110.7       110.7    
        110.7       110.7       110.7       110.7       110.7       110.7       110.7       110.7       110.7       110.7    
        110.7       110.7       110.7       110.7       110.7    
  22    110.7       110.7       110.7       110.7       110.7       110.7       110.7       110.7       110.7       110.7    
        110.7       110.7       110.7       110.7       110.7       110.7       110.7       110.7       110.7       110.7    
        110.7       110.7       110.7       110.7       110.7       110.7       110.7       110.7       110.7       110.7    
        110.7       110.7       110.7       110.7       110.7    
  23    110.7       110.7       110.7       110.7       110.7       110.7       110.7       110.7       110.7       110.7    
        110.7       110.7       110.7       110.7       110.7       110.7       110.7       110.7       110.7       110.7    
        110.7       110.7       110.7       110.7       110.7       110.7       110.7       110.7       110.7       110.7    
        110.7       110.7       110.7       110.7       110.7    
  24    110.7       110.7       110.7       110.7       110.7       110.7       110.7       110.7       110.7       110.7    
        110.7       110.7       110.7       110.7       110.7       110.7       110.7       110.7       110.7       110.7    
        110.7       110.7       110.7       110.7       110.7       110.7       110.7       110.7       110.7       110.7    
        110.7       110.7       110.7       110.7       110.7    
  25    110.7       110.7       110.7       110.7       110.7       110.7       110.7       110.7       110.7       110.7    
        110.7       110.7       110.7       110.7       110.7       110.7       110.7       110.7       110.7       110.7    
        110.7       110.7       110.7       110.7       110.7       110.7       110.7       110.7       110.7       110.7    
        110.7       110.7       110.7       110.7       110.7    
  26    110.7       110.7       110.7       110.7       110.7       110.7       110.7       110.7       110.7       110.7    
        110.7       110.7       110.7       110.7       110.7       110.7       110.7       110.7       110.7       110.7    
        110.7       110.7       110.7       110.7       110.7       110.7       110.7       110.7       110.7       110.7    
        110.7       110.7       110.7       110.7       110.7    
  27    110.7       110.7       110.7       110.7       110.7       110.7       110.7       110.7       110.7       110.7    
        110.7       110.7       110.7       110.7       110.7       110.7       110.7       110.7       110.7       110.7    
        110.7       110.7       110.7       110.7       110.7       110.7       110.7       110.7       110.7       110.7    
        110.7       110.7       110.7       110.7       110.7    
  28    110.7       110.7       110.7       110.7       110.7       110.7       110.7       110.7       110.7       110.7    
        110.7       110.7       110.7       110.7       110.7       110.7       110.7       110.7       110.7       110.7    
        110.7       110.7       110.7       110.7       110.7       110.7       110.7       110.7       110.7       110.7    
        110.7       110.7       110.7       110.7       110.7    
  29    110.7       110.7       110.7       110.7       110.7       110.7       110.7       110.7       110.7       110.7    
        110.7       110.7       110.7       110.7       110.7       110.7       110.7       110.7       110.7       110.7    
        110.7       110.7       110.7       110.7       110.7       110.7       110.7       110.7       110.7       110.7    
        110.7       110.7       110.7       110.7       110.7    
  30    110.7       110.7       110.7       110.7       110.7       110.7       110.7       110.7       110.7       110.7    
        110.7       110.7       110.7       110.7       110.7       110.7       110.7       110.7       110.7       110.7    
        110.7       110.7       110.7       110.7       110.7       110.7       110.7       110.7       110.7       110.7    
        110.7       110.7       110.7       110.7       110.7    
  31    110.7       110.7       110.7       110.7       110.7       110.7       110.7       110.7       110.7       110.7    
        110.7       110.7       110.7       110.7       110.7       110.7       110.7       110.7       110.7       110.7    
        110.7       110.7       110.7       110.7       110.7       110.7       110.7       110.7       110.7       110.7    
        110.7       110.7       110.7       110.7       110.7    
  32    110.7       110.7       110.7       110.7       110.7       110.7       110.7       110.7       110.7       110.7    
        110.7       110.7       110.7       110.7       110.7       110.7       110.7       110.7       110.7       110.7    
        110.7       110.7       110.7       110.7       110.7       110.7       110.7       110.7       110.7       110.7    
        110.7       110.7       110.7       110.7       110.7    
  33    110.7       110.7       110.7       110.7       110.7       110.7       110.7       110.7       110.7       110.7    
        110.7       110.7       110.7       110.7       110.7       110.7       110.7       110.7       110.7       110.7    
        110.7       110.7       110.7       110.7       110.7       110.7       110.7       110.7       110.7       110.7    
        110.7       110.7       110.7       110.7       110.7    
  34    110.7       110.7       110.7       110.7       110.7       110.7       110.7       110.7       110.7       110.7    
        110.7       110.7       110.7       110.7       110.7       110.7       110.7       110.7       110.7       110.7    
        110.7       110.7       110.7       110.7       110.7       110.7       110.7       110.7       110.7       110.7    
        110.7       110.7       110.7       110.7       110.7    
  35    110.7       110.7       110.7       110.7       110.7       110.7       110.7       110.7       110.7       110.7    
        110.7       110.7       110.7       110.7       110.7       110.7       110.7       110.7       110.7       110.7    
        110.7       110.7       110.7       110.7       110.7       110.7       110.7       110.7       110.7       110.7    
        110.7       110.7       110.7       110.7       110.7    
  36    110.7       110.7       110.7       110.7       110.7       110.7       110.7       110.7       110.7       110.7    
        110.7       110.7       110.7       110.7       110.7       110.7       110.7       110.7       110.7       110.7    
        110.7       110.7       110.7       110.7       110.7       110.7       110.7       110.7       110.7       110.7    
        110.7       110.7       110.7       110.7       110.7    
  37    110.7       110.7       110.7       110.7       110.7       110.7       110.7       110.7       110.7       110.7    
        110.7       110.7       110.7       110.7       110.7       110.7       110.7       110.7       110.7       110.7    
        110.7       110.7       110.7       110.7       110.7       110.7       110.7       110.7       110.7       110.7    
        110.7       110.7       110.7       110.7       110.7    
  38    110.7       110.7       110.7       110.7       110.7       110.7       110.7       110.7       110.7       110.7    
        110.7       110.7       110.7       110.7       110.7       110.7       110.7       110.7       110.7       110.7    
        110.7       110.7       110.7       110.7       110.7       110.7       110.7       110.7       110.7       110.7    
        110.7       110.7       110.7       110.7       110.7    
  39    110.7       110.7       110.7       110.7       110.7       110.7       110.7       110.7       110.7       110.7    
        110.7       110.7       110.7       110.7       110.7       110.7       110.7       110.7       110.7       110.7    
        110.7       110.7       110.7       110.7       110.7       110.7       110.7       110.7       110.7       110.7    
        110.7       110.7       110.7       110.7       110.7    
  40    110.7       110.7       110.7       110.7       110.7       110.7       110.7       110.7       110.7       110.7    
        110.7       110.7       110.7       110.7       110.7       110.7       110.7       110.7       110.7       110.7    
        110.7       110.7       110.7       110.7       110.7       110.7       110.7       110.7       110.7       110.7    
        110.7       110.7       110.7       110.7       110.7    
  41    110.7       110.7       110.7       110.7       110.7       110.7       110.7       110.7       110.7       110.7    
        110.7       110.7       110.7       110.7       110.7       110.7       110.7       110.7       110.7       110.7    
        110.7       110.7       110.7       110.7       110.7       110.7       110.7       110.7       110.7       110.7    
        110.7       110.7       110.7       110.7       110.7    
  42    110.7       110.7       110.7       110.7       110.7       110.7       110.7       110.7       110.7       110.7    
        110.7       110.7       110.7       110.7       110.7       110.7       110.7       110.7       110.7       110.7    
        110.7       110.7       110.7       110.7       110.7       110.7       110.7       110.7       110.7       110.7    
        110.7       110.7       110.7       110.7       110.7    
  43    110.7       110.7       110.7       110.7       110.7       110.7       110.7       110.7       110.7       110.7    
        110.7       110.7       110.7       110.7       110.7       110.7       110.7       110.7       110.7       110.7    
        110.7       110.7       110.7       110.7       110.7       110.7       110.7       110.7       110.7       110.7    
        110.7       110.7       110.7       110.7       110.7    
  44    110.7       110.7       110.7       110.7       110.7       110.7       110.7       110.7       110.7       110.7    
        110.7       110.7       110.7       110.7       110.7       110.7       110.7       110.7       110.7       110.7    
        110.7       110.7       110.7       110.7       110.7       110.7       110.7       110.7       110.7       110.7    
        110.7       110.7       110.7       110.7       110.7    
  45    110.7       110.7       110.7       110.7       110.7       110.7       110.7       110.7       110.7       110.7    
        110.7       110.7       110.7       110.7       110.7       110.7       110.7       110.7       110.7       110.7    
        110.7       110.7       110.7       110.7       110.7       110.7       110.7       110.7       110.7       110.7    
        110.7       110.7       110.7       110.7       110.7    



                       INITIAL HEAD FOR LAYER   2
 READING ON UNIT   13 WITH FORMAT: (FREE)              

            1           2           3           4           5           6           7           8           9          10
           11          12          13          14          15          16          17          18          19          20
           21          22          23          24          25          26          27          28          29          30
           31          32          33          34          35
 ........................................................................................................................
   1    110.7       110.7       110.7       110.7       110.7       110.7       110.7       110.7       110.7       110.7    
        110.8       110.8       110.8       110.8       110.8       110.8       110.8       110.8       110.8       110.8    
        110.8       110.8       110.8       110.7       110.7       110.7       110.7       110.7       110.7       110.7    
        110.7       110.7       110.7       110.7       110.7    
   2    110.7       110.7       110.7       110.7       110.7       110.7       110.7       110.7       110.7       110.7    
        110.8       110.8       110.8       110.8       110.8       110.8       110.8       110.8       110.8       110.8    
        110.8       110.8       110.8       110.7       110.7       110.7       110.7       110.7       110.7       110.7    
        110.7       110.7       110.7       110.7       110.7    
   3    110.7       110.7       110.7       110.7       110.7       110.7       110.7       110.7       110.7       110.7    
        110.7       110.8       110.8       110.8       110.8       110.8       110.8       110.8       110.8       110.8    
        110.8       110.8       110.7       110.7       110.7       110.7       110.7       110.7       110.7       110.7    
        110.7       110.7       110.7       110.7       110.7    
   4    110.7       110.7       110.7       110.7       110.7       110.7       110.7       110.7       110.7       110.7    
        110.7       110.8       110.8       110.8       110.8       110.8       110.8       110.8       110.8       110.8    
        110.8       110.8       110.7       110.7       110.7       110.7       110.7       110.7       110.7       110.7    
        110.7       110.7       110.7       110.7       110.7    
   5    110.7       110.7       110.7       110.7       110.7       110.7       110.7       110.7       110.7       110.7    
        110.7       110.8       110.8       110.8       110.8       110.8       110.8       110.8       110.8       110.8    
        110.8       110.7       110.7       110.7       110.7       110.7       110.7       110.7       110.7       110.7    
        110.7       110.7       110.7       110.7       110.7    
   6    110.7       110.7       110.7       110.7       110.7       110.7       110.7       110.7       110.7       110.7    
        110.7       110.7       110.8       110.8       110.8       110.8       110.8       110.8       110.8       110.8    
        110.7       110.7       110.7       110.7       110.7       110.7       110.7       110.7       110.7       110.7    
        110.7       110.7       110.7       110.7       110.7    
   7    110.7       110.7       110.7       110.7       110.7       110.7       110.7       110.7       110.7       110.7    
        110.7       110.7       110.7       110.8       110.8       110.8       110.8       110.8       110.8       110.7    
        110.7       110.7       110.7       110.7       110.7       110.7       110.7       110.7       110.7       110.7    
        110.7       110.7       110.7       110.7       110.7    
   8    110.7       110.7       110.7       110.7       110.7       110.7       110.7       110.7       110.7       110.7    
        110.7       110.7       110.7       110.7       110.7       110.7       110.7       110.7       110.7       110.7    
        110.7       110.7       110.7       110.7       110.7       110.7       110.7       110.7       110.7       110.7    
        110.7       110.7       110.7       110.7       110.7    
   9    110.7       110.7       110.7       110.7       110.7       110.7       110.7       110.7       110.7       110.7    
        110.7       110.7       110.7       110.7       110.7       110.7       110.7       110.7       110.7       110.7    
        110.7       110.7       110.7       110.7       110.7       110.7       110.7       110.7       110.7       110.7    
        110.7       110.7       110.7       110.7       110.7    
  10    110.7       110.7       110.7       110.7       110.7       110.7       110.7       110.7       110.7       110.7    
        110.7       110.7       110.7       110.7       110.7       110.7       110.7       110.7       110.7       110.7    
        110.7       110.7       110.7       110.7       110.7       110.7       110.7       110.7       110.7       110.7    
        110.7       110.7       110.7       110.7       110.7    
  11    110.7       110.7       110.7       110.7       110.7       110.7       110.7       110.7       110.7       110.7    
        110.7       110.7       110.7       110.7       110.7       110.7       110.7       110.7       110.7       110.7    
        110.7       110.7       110.7       110.7       110.7       110.7       110.7       110.7       110.7       110.7    
        110.7       110.7       110.7       110.7       110.7    
  12    110.7       110.7       110.7       110.7       110.7       110.7       110.7       110.7       110.7       110.7    
        110.7       110.7       110.7       110.7       110.7       110.7       110.7       110.7       110.7       110.7    
        110.7       110.7       110.7       110.7       110.7       110.7       110.7       110.7       110.7       110.7    
        110.7       110.7       110.7       110.7       110.7    
  13    110.7       110.7       110.7       110.7       110.7       110.7       110.7       110.7       110.7       110.7    
        110.7       110.7       110.7       110.7       110.7       110.7       110.7       110.7       110.7       110.7    
        110.7       110.7       110.7       110.7       110.7       110.7       110.7       110.7       110.7       110.7    
        110.7       110.7       110.7       110.7       110.7    
  14    110.7       110.7       110.7       110.7       110.7       110.7       110.7       110.7       110.7       110.7    
        110.7       110.7       110.7       110.7       110.7       110.7       110.7       110.7       110.7       110.7    
        110.7       110.7       110.7       110.7       110.7       110.7       110.7       110.7       110.7       110.7    
        110.7       110.7       110.7       110.7       110.7    
  15    110.7       110.7       110.7       110.7       110.7       110.7       110.7       110.7       110.7       110.7    
        110.7       110.7       110.7       110.7       110.7       110.7       110.7       110.7       110.7       110.7    
        110.7       110.7       110.7       110.7       110.7       110.7       110.7       110.7       110.7       110.7    
        110.7       110.7       110.7       110.7       110.7    
  16    110.7       110.7       110.7       110.7       110.7       110.7       110.7       110.7       110.7       110.7    
        110.7       110.7       110.7       110.7       110.7       110.7       110.7       110.7       110.7       110.7    
        110.7       110.7       110.7       110.7       110.7       110.7       110.7       110.7       110.7       110.7    
        110.7       110.7       110.7       110.7       110.7    
  17    110.7       110.7       110.7       110.7       110.7       110.7       110.7       110.7       110.7       110.7    
        110.7       110.7       110.7       110.7       110.7       110.7       110.7       110.7       110.7       110.7    
        110.7       110.7       110.7       110.7       110.7       110.7       110.7       110.7       110.7       110.7    
        110.7       110.7       110.7       110.7       110.7    
  18    110.7       110.7       110.7       110.7       110.7       110.7       110.7       110.7       110.7       110.7    
        110.7       110.7       110.7       110.7       110.7       110.7       110.7       110.7       110.7       110.7    
        110.7       110.7       110.7       110.7       110.7       110.7       110.7       110.7       110.7       110.7    
        110.7       110.7       110.7       110.7       110.7    
  19    110.7       110.7       110.7       110.7       110.7       110.7       110.7       110.7       110.7       110.7    
        110.7       110.7       110.7       110.7       110.7       110.7       110.7       110.7       110.7       110.7    
        110.7       110.7       110.7       110.7       110.7       110.7       110.7       110.7       110.7       110.7    
        110.7       110.7       110.7       110.7       110.7    
  20    110.7       110.7       110.7       110.7       110.7       110.7       110.7       110.7       110.7       110.7    
        110.7       110.7       110.7       110.7       110.7       110.7       110.7       110.7       110.7       110.7    
        110.7       110.7       110.7       110.7       110.7       110.7       110.7       110.7       110.7       110.7    
        110.7       110.7       110.7       110.7       110.7    
  21    110.7       110.7       110.7       110.7       110.7       110.7       110.7       110.7       110.7       110.7    
        110.7       110.7       110.7       110.7       110.7       110.7       110.7       110.7       110.7       110.7    
        110.7       110.7       110.7       110.7       110.7       110.7       110.7       110.7       110.7       110.7    
        110.7       110.7       110.7       110.7       110.7    
  22    110.7       110.7       110.7       110.7       110.7       110.7       110.7       110.7       110.7       110.7    
        110.7       110.7       110.7       110.7       110.7       110.7       110.7       110.7       110.7       110.7    
        110.7       110.7       110.7       110.7       110.7       110.7       110.7       110.7       110.7       110.7    
        110.7       110.7       110.7       110.7       110.7    
  23    110.7       110.7       110.7       110.7       110.7       110.7       110.7       110.7       110.7       110.7    
        110.7       110.7       110.7       110.7       110.7       110.7       110.7       110.7       110.7       110.7    
        110.7       110.7       110.7       110.7       110.7       110.7       110.7       110.7       110.7       110.7    
        110.7       110.7       110.7       110.7       110.7    
  24    110.7       110.7       110.7       110.7       110.7       110.7       110.7       110.7       110.7       110.7    
        110.7       110.7       110.7       110.7       110.7       110.7       110.7       110.7       110.7       110.7    
        110.7       110.7       110.7       110.7       110.7       110.7       110.7       110.7       110.7       110.7    
        110.7       110.7       110.7       110.7       110.7    
  25    110.7       110.7       110.7       110.7       110.7       110.7       110.7       110.7       110.7       110.7    
        110.7       110.7       110.7       110.7       110.7       110.7       110.7       110.7       110.7       110.7    
        110.7       110.7       110.7       110.7       110.7       110.7       110.7       110.7       110.7       110.7    
        110.7       110.7       110.7       110.7       110.7    
  26    110.7       110.7       110.7       110.7       110.7       110.7       110.7       110.7       110.7       110.7    
        110.7       110.7       110.7       110.7       110.7       110.7       110.7       110.7       110.7       110.7    
        110.7       110.7       110.7       110.7       110.7       110.7       110.7       110.7       110.7       110.7    
        110.7       110.7       110.7       110.7       110.7    
  27    110.7       110.7       110.7       110.7       110.7       110.7       110.7       110.7       110.7       110.7    
        110.7       110.7       110.7       110.7       110.7       110.7       110.7       110.7       110.7       110.7    
        110.7       110.7       110.7       110.7       110.7       110.7       110.7       110.7       110.7       110.7    
        110.7       110.7       110.7       110.7       110.7    
  28    110.7       110.7       110.7       110.7       110.7       110.7       110.7       110.7       110.7       110.7    
        110.7       110.7       110.7       110.7       110.7       110.7       110.7       110.7       110.7       110.7    
        110.7       110.7       110.7       110.7       110.7       110.7       110.7       110.7       110.7       110.7    
        110.7       110.7       110.7       110.7       110.7    
  29    110.7       110.7       110.7       110.7       110.7       110.7       110.7       110.7       110.7       110.7    
        110.7       110.7       110.7       110.7       110.7       110.7       110.7       110.7       110.7       110.7    
        110.7       110.7       110.7       110.7       110.7       110.7       110.7       110.7       110.7       110.7    
        110.7       110.7       110.7       110.7       110.7    
  30    110.7       110.7       110.7       110.7       110.7       110.7       110.7       110.7       110.7       110.7    
        110.7       110.7       110.7       110.7       110.7       110.7       110.7       110.7       110.7       110.7    
        110.7       110.7       110.7       110.7       110.7       110.7       110.7       110.7       110.7       110.7    
        110.7       110.7       110.7       110.7       110.7    
  31    110.7       110.7       110.7       110.7       110.7       110.7       110.7       110.7       110.7       110.7    
        110.7       110.7       110.7       110.7       110.7       110.7       110.7       110.7       110.7       110.7    
        110.7       110.7       110.7       110.7       110.7       110.7       110.7       110.7       110.7       110.7    
        110.7       110.7       110.7       110.7       110.7    
  32    110.7       110.7       110.7       110.7       110.7       110.7       110.7       110.7       110.7       110.7    
        110.7       110.7       110.7       110.7       110.7       110.7       110.7       110.7       110.7       110.7    
        110.7       110.7       110.7       110.7       110.7       110.7       110.7       110.7       110.7       110.7    
        110.7       110.7       110.7       110.7       110.7    
  33    110.7       110.7       110.7       110.7       110.7       110.7       110.7       110.7       110.7       110.7    
        110.7       110.7       110.7       110.7       110.7       110.7       110.7       110.7       110.7       110.7    
        110.7       110.7       110.7       110.7       110.7       110.7       110.7       110.7       110.7       110.7    
        110.7       110.7       110.7       110.7       110.7    
  34    110.7       110.7       110.7       110.7       110.7       110.7       110.7       110.7       110.7       110.7    
        110.7       110.7       110.7       110.7       110.7       110.7       110.7       110.7       110.7       110.7    
        110.7       110.7       110.7       110.7       110.7       110.7       110.7       110.7       110.7       110.7    
        110.7       110.7       110.7       110.7       110.7    
  35    110.7       110.7       110.7       110.7       110.7       110.7       110.7       110.7       110.7       110.7    
        110.7       110.7       110.7       110.7       110.7       110.7       110.7       110.7       110.7       110.7    
        110.7       110.7       110.7       110.7       110.7       110.7       110.7       110.7       110.7       110.7    
        110.7       110.7       110.7       110.7       110.7    
  36    110.7       110.7       110.7       110.7       110.7       110.7       110.7       110.7       110.7       110.7    
        110.7       110.7       110.7       110.7       110.7       110.7       110.7       110.7       110.7       110.7    
        110.7       110.7       110.7       110.7       110.7       110.7       110.7       110.7       110.7       110.7    
        110.7       110.7       110.7       110.7       110.7    
  37    110.7       110.7       110.7       110.7       110.7       110.7       110.7       110.7       110.7       110.7    
        110.7       110.7       110.7       110.7       110.7       110.7       110.7       110.7       110.7       110.7    
        110.7       110.7       110.7       110.7       110.7       110.7       110.7       110.7       110.7       110.7    
        110.7       110.7       110.7       110.7       110.7    
  38    110.7       110.7       110.7       110.7       110.7       110.7       110.7       110.7       110.7       110.7    
        110.7       110.7       110.7       110.7       110.7       110.7       110.7       110.7       110.7       110.7    
        110.7       110.7       110.7       110.7       110.7       110.7       110.7       110.7       110.7       110.7    
        110.7       110.7       110.7       110.7       110.7    
  39    110.7       110.7       110.7       110.7       110.7       110.7       110.7       110.7       110.7       110.7    
        110.7       110.7       110.7       110.7       110.7       110.7       110.7       110.7       110.7       110.7    
        110.7       110.7       110.7       110.7       110.7       110.7       110.7       110.7       110.7       110.7    
        110.7       110.7       110.7       110.7       110.7    
  40    110.7       110.7       110.7       110.7       110.7       110.7       110.7       110.7       110.7       110.7    
        110.7       110.7       110.7       110.7       110.7       110.7       110.7       110.7       110.7       110.7    
        110.7       110.7       110.7       110.7       110.7       110.7       110.7       110.7       110.7       110.7    
        110.7       110.7       110.7       110.7       110.7    
  41    110.7       110.7       110.7       110.7       110.7       110.7       110.7       110.7       110.7       110.7    
        110.7       110.7       110.7       110.7       110.7       110.7       110.7       110.7       110.7       110.7    
        110.7       110.7       110.7       110.7       110.7       110.7       110.7       110.7       110.7       110.7    
        110.7       110.7       110.7       110.7       110.7    
  42    110.7       110.7       110.7       110.7       110.7       110.7       110.7       110.7       110.7       110.7    
        110.7       110.7       110.7       110.7       110.7       110.7       110.7       110.7       110.7       110.7    
        110.7       110.7       110.7       110.7       110.7       110.7       110.7       110.7       110.7       110.7    
        110.7       110.7       110.7       110.7       110.7    
  43    110.7       110.7       110.7       110.7       110.7       110.7       110.7       110.7       110.7       110.7    
        110.7       110.7       110.7       110.7       110.7       110.7       110.7       110.7       110.7       110.7    
        110.7       110.7       110.7       110.7       110.7       110.7       110.7       110.7       110.7       110.7    
        110.7       110.7       110.7       110.7       110.7    
  44    110.7       110.7       110.7       110.7       110.7       110.7       110.7       110.7       110.7       110.7    
        110.7       110.7       110.7       110.7       110.7       110.7       110.7       110.7       110.7       110.7    
        110.7       110.7       110.7       110.7       110.7       110.7       110.7       110.7       110.7       110.7    
        110.7       110.7       110.7       110.7       110.7    
  45    110.7       110.7       110.7       110.7       110.7       110.7       110.7       110.7       110.7       110.7    
        110.7       110.7       110.7       110.7       110.7       110.7       110.7       110.7       110.7       110.7    
        110.7       110.7       110.7       110.7       110.7       110.7       110.7       110.7       110.7       110.7    
        110.7       110.7       110.7       110.7       110.7    



                       INITIAL HEAD FOR LAYER   3
 READING ON UNIT   13 WITH FORMAT: (FREE)              

            1           2           3           4           5           6           7           8           9          10
           11          12          13          14          15          16          17          18          19          20
           21          22          23          24          25          26          27          28          29          30
           31          32          33          34          35
 ........................................................................................................................
   1    110.7       110.7       110.7       110.7       110.7       110.7       110.7       110.7       110.7       110.7    
        110.8       110.8       110.8       110.8       110.8       110.8       110.8       110.8       110.8       110.8    
        110.8       110.8       110.8       110.7       110.7       110.7       110.7       110.7       110.7       110.7    
        110.7       110.7       110.7       110.7       110.7    
   2    110.7       110.7       110.7       110.7       110.7       110.7       110.7       110.7       110.7       110.7    
        110.8       110.8       110.8       110.8       110.8       110.8       110.8       110.8       110.8       110.8    
        110.8       110.8       110.8       110.7       110.7       110.7       110.7       110.7       110.7       110.7    
        110.7       110.7       110.7       110.7       110.7    
   3    110.7       110.7       110.7       110.7       110.7       110.7       110.7       110.7       110.7       110.7    
        110.7       110.8       110.8       110.8       110.8       110.8       110.8       110.8       110.8       110.8    
        110.8       110.8       110.7       110.7       110.7       110.7       110.7       110.7       110.7       110.7    
        110.7       110.7       110.7       110.7       110.7    
   4    110.7       110.7       110.7       110.7       110.7       110.7       110.7       110.7       110.7       110.7    
        110.7       110.8       110.8       110.8       110.8       110.8       110.8       110.8       110.8       110.8    
        110.8       110.8       110.7       110.7       110.7       110.7       110.7       110.7       110.7       110.7    
        110.7       110.7       110.7       110.7       110.7    
   5    110.7       110.7       110.7       110.7       110.7       110.7       110.7       110.7       110.7       110.7    
        110.7       110.8       110.8       110.8       110.8       110.8       110.8       110.8       110.8       110.8    
        110.8       110.7       110.7       110.7       110.7       110.7       110.7       110.7       110.7       110.7    
        110.7       110.7       110.7       110.7       110.7    
   6    110.7       110.7       110.7       110.7       110.7       110.7       110.7       110.7       110.7       110.7    
        110.7       110.7       110.8       110.8       110.8       110.8       110.8       110.8       110.8       110.8    
        110.7       110.7       110.7       110.7       110.7       110.7       110.7       110.7       110.7       110.7    
        110.7       110.7       110.7       110.7       110.7    
   7    110.7       110.7       110.7       110.7       110.7       110.7       110.7       110.7       110.7       110.7    
        110.7       110.7       110.7       110.8       110.8       110.8       110.8       110.8       110.8       110.7    
        110.7       110.7       110.7       110.7       110.7       110.7       110.7       110.7       110.7       110.7    
        110.7       110.7       110.7       110.7       110.7    
   8    110.7       110.7       110.7       110.7       110.7       110.7       110.7       110.7       110.7       110.7    
        110.7       110.7       110.7       110.7       110.7       110.7       110.7       110.7       110.7       110.7    
        110.7       110.7       110.7       110.7       110.7       110.7       110.7       110.7       110.7       110.7    
        110.7       110.7       110.7       110.7       110.7    
   9    110.7       110.7       110.7       110.7       110.7       110.7       110.7       110.7       110.7       110.7    
        110.7       110.7       110.7       110.7       110.7       110.7       110.7       110.7       110.7       110.7    
        110.7       110.7       110.7       110.7       110.7       110.7       110.7       110.7       110.7       110.7    
        110.7       110.7       110.7       110.7       110.7    
  10    110.7       110.7       110.7       110.7       110.7       110.7       110.7       110.7       110.7       110.7    
        110.7       110.7       110.7       110.7       110.7       110.7       110.7       110.7       110.7       110.7    
        110.7       110.7       110.7       110.7       110.7       110.7       110.7       110.7       110.7       110.7    
        110.7       110.7       110.7       110.7       110.7    
  11    110.7       110.7       110.7       110.7       110.7       110.7       110.7       110.7       110.7       110.7    
        110.7       110.7       110.7       110.7       110.7       110.7       110.7       110.7       110.7       110.7    
        110.7       110.7       110.7       110.7       110.7       110.7       110.7       110.7       110.7       110.7    
        110.7       110.7       110.7       110.7       110.7    
  12    110.7       110.7       110.7       110.7       110.7       110.7       110.7       110.7       110.7       110.7    
        110.7       110.7       110.7       110.7       110.7       110.7       110.7       110.7       110.7       110.7    
        110.7       110.7       110.7       110.7       110.7       110.7       110.7       110.7       110.7       110.7    
        110.7       110.7       110.7       110.7       110.7    
  13    110.7       110.7       110.7       110.7       110.7       110.7       110.7       110.7       110.7       110.7    
        110.7       110.7       110.7       110.7       110.7       110.7       110.7       110.7       110.7       110.7    
        110.7       110.7       110.7       110.7       110.7       110.7       110.7       110.7       110.7       110.7    
        110.7       110.7       110.7       110.7       110.7    
  14    110.7       110.7       110.7       110.7       110.7       110.7       110.7       110.7       110.7       110.7    
        110.7       110.7       110.7       110.7       110.7       110.7       110.7       110.7       110.7       110.7    
        110.7       110.7       110.7       110.7       110.7       110.7       110.7       110.7       110.7       110.7    
        110.7       110.7       110.7       110.7       110.7    
  15    110.7       110.7       110.7       110.7       110.7       110.7       110.7       110.7       110.7       110.7    
        110.7       110.7       110.7       110.7       110.7       110.7       110.7       110.7       110.7       110.7    
        110.7       110.7       110.7       110.7       110.7       110.7       110.7       110.7       110.7       110.7    
        110.7       110.7       110.7       110.7       110.7    
  16    110.7       110.7       110.7       110.7       110.7       110.7       110.7       110.7       110.7       110.7    
        110.7       110.7       110.7       110.7       110.7       110.7       110.7       110.7       110.7       110.7    
        110.7       110.7       110.7       110.7       110.7       110.7       110.7       110.7       110.7       110.7    
        110.7       110.7       110.7       110.7       110.7    
  17    110.7       110.7       110.7       110.7       110.7       110.7       110.7       110.7       110.7       110.7    
        110.7       110.7       110.7       110.7       110.7       110.7       110.7       110.7       110.7       110.7    
        110.7       110.7       110.7       110.7       110.7       110.7       110.7       110.7       110.7       110.7    
        110.7       110.7       110.7       110.7       110.7    
  18    110.7       110.7       110.7       110.7       110.7       110.7       110.7       110.7       110.7       110.7    
        110.7       110.7       110.7       110.7       110.7       110.7       110.7       110.7       110.7       110.7    
        110.7       110.7       110.7       110.7       110.7       110.7       110.7       110.7       110.7       110.7    
        110.7       110.7       110.7       110.7       110.7    
  19    110.7       110.7       110.7       110.7       110.7       110.7       110.7       110.7       110.7       110.7    
        110.7       110.7       110.7       110.7       110.7       110.7       110.7       110.7       110.7       110.7    
        110.7       110.7       110.7       110.7       110.7       110.7       110.7       110.7       110.7       110.7    
        110.7       110.7       110.7       110.7       110.7    
  20    110.7       110.7       110.7       110.7       110.7       110.7       110.7       110.7       110.7       110.7    
        110.7       110.7       110.7       110.7       110.7       110.7       110.7       110.7       110.7       110.7    
        110.7       110.7       110.7       110.7       110.7       110.7       110.7       110.7       110.7       110.7    
        110.7       110.7       110.7       110.7       110.7    
  21    110.7       110.7       110.7       110.7       110.7       110.7       110.7       110.7       110.7       110.7    
        110.7       110.7       110.7       110.7       110.7       110.7       110.7       110.7       110.7       110.7    
        110.7       110.7       110.7       110.7       110.7       110.7       110.7       110.7       110.7       110.7    
        110.7       110.7       110.7       110.7       110.7    
  22    110.7       110.7       110.7       110.7       110.7       110.7       110.7       110.7       110.7       110.7    
        110.7       110.7       110.7       110.7       110.7       110.7       110.7       110.7       110.7       110.7    
        110.7       110.7       110.7       110.7       110.7       110.7       110.7       110.7       110.7       110.7    
        110.7       110.7       110.7       110.7       110.7    
  23    110.7       110.7       110.7       110.7       110.7       110.7       110.7       110.7       110.7       110.7    
        110.7       110.7       110.7       110.7       110.7       110.7       110.7       110.7       110.7       110.7    
        110.7       110.7       110.7       110.7       110.7       110.7       110.7       110.7       110.7       110.7    
        110.7       110.7       110.7       110.7       110.7    
  24    110.7       110.7       110.7       110.7       110.7       110.7       110.7       110.7       110.7       110.7    
        110.7       110.7       110.7       110.7       110.7       110.7       110.7       110.7       110.7       110.7    
        110.7       110.7       110.7       110.7       110.7       110.7       110.7       110.7       110.7       110.7    
        110.7       110.7       110.7       110.7       110.7    
  25    110.7       110.7       110.7       110.7       110.7       110.7       110.7       110.7       110.7       110.7    
        110.7       110.7       110.7       110.7       110.7       110.7       110.7       110.7       110.7       110.7    
        110.7       110.7       110.7       110.7       110.7       110.7       110.7       110.7       110.7       110.7    
        110.7       110.7       110.7       110.7       110.7    
  26    110.7       110.7       110.7       110.7       110.7       110.7       110.7       110.7       110.7       110.7    
        110.7       110.7       110.7       110.7       110.7       110.7       110.7       110.7       110.7       110.7    
        110.7       110.7       110.7       110.7       110.7       110.7       110.7       110.7       110.7       110.7    
        110.7       110.7       110.7       110.7       110.7    
  27    110.7       110.7       110.7       110.7       110.7       110.7       110.7       110.7       110.7       110.7    
        110.7       110.7       110.7       110.7       110.7       110.7       110.7       110.7       110.7       110.7    
        110.7       110.7       110.7       110.7       110.7       110.7       110.7       110.7       110.7       110.7    
        110.7       110.7       110.7       110.7       110.7    
  28    110.7       110.7       110.7       110.7       110.7       110.7       110.7       110.7       110.7       110.7    
        110.7       110.7       110.7       110.7       110.7       110.7       110.7       110.7       110.7       110.7    
        110.7       110.7       110.7       110.7       110.7       110.7       110.7       110.7       110.7       110.7    
        110.7       110.7       110.7       110.7       110.7    
  29    110.7       110.7       110.7       110.7       110.7       110.7       110.7       110.7       110.7       110.7    
        110.7       110.7       110.7       110.7       110.7       110.7       110.7       110.7       110.7       110.7    
        110.7       110.7       110.7       110.7       110.7       110.7       110.7       110.7       110.7       110.7    
        110.7       110.7       110.7       110.7       110.7    
  30    110.7       110.7       110.7       110.7       110.7       110.7       110.7       110.7       110.7       110.7    
        110.7       110.7       110.7       110.7       110.7       110.7       110.7       110.7       110.7       110.7    
        110.7       110.7       110.7       110.7       110.7       110.7       110.7       110.7       110.7       110.7    
        110.7       110.7       110.7       110.7       110.7    
  31    110.7       110.7       110.7       110.7       110.7       110.7       110.7       110.7       110.7       110.7    
        110.7       110.7       110.7       110.7       110.7       110.7       110.7       110.7       110.7       110.7    
        110.7       110.7       110.7       110.7       110.7       110.7       110.7       110.7       110.7       110.7    
        110.7       110.7       110.7       110.7       110.7    
  32    110.7       110.7       110.7       110.7       110.7       110.7       110.7       110.7       110.7       110.7    
        110.7       110.7       110.7       110.7       110.7       110.7       110.7       110.7       110.7       110.7    
        110.7       110.7       110.7       110.7       110.7       110.7       110.7       110.7       110.7       110.7    
        110.7       110.7       110.7       110.7       110.7    
  33    110.7       110.7       110.7       110.7       110.7       110.7       110.7       110.7       110.7       110.7    
        110.7       110.7       110.7       110.7       110.7       110.7       110.7       110.7       110.7       110.7    
        110.7       110.7       110.7       110.7       110.7       110.7       110.7       110.7       110.7       110.7    
        110.7       110.7       110.7       110.7       110.7    
  34    110.7       110.7       110.7       110.7       110.7       110.7       110.7       110.7       110.7       110.7    
        110.7       110.7       110.7       110.7       110.7       110.7       110.7       110.7       110.7       110.7    
        110.7       110.7       110.7       110.7       110.7       110.7       110.7       110.7       110.7       110.7    
        110.7       110.7       110.7       110.7       110.7    
  35    110.7       110.7       110.7       110.7       110.7       110.7       110.7       110.7       110.7       110.7    
        110.7       110.7       110.7       110.7       110.7       110.7       110.7       110.7       110.7       110.7    
        110.7       110.7       110.7       110.7       110.7       110.7       110.7       110.7       110.7       110.7    
        110.7       110.7       110.7       110.7       110.7    
  36    110.7       110.7       110.7       110.7       110.7       110.7       110.7       110.7       110.7       110.7    
        110.7       110.7       110.7       110.7       110.7       110.7       110.7       110.7       110.7       110.7    
        110.7       110.7       110.7       110.7       110.7       110.7       110.7       110.7       110.7       110.7    
        110.7       110.7       110.7       110.7       110.7    
  37    110.7       110.7       110.7       110.7       110.7       110.7       110.7       110.7       110.7       110.7    
        110.7       110.7       110.7       110.7       110.7       110.7       110.7       110.7       110.7       110.7    
        110.7       110.7       110.7       110.7       110.7       110.7       110.7       110.7       110.7       110.7    
        110.7       110.7       110.7       110.7       110.7    
  38    110.7       110.7       110.7       110.7       110.7       110.7       110.7       110.7       110.7       110.7    
        110.7       110.7       110.7       110.7       110.7       110.7       110.7       110.7       110.7       110.7    
        110.7       110.7       110.7       110.7       110.7       110.7       110.7       110.7       110.7       110.7    
        110.7       110.7       110.7       110.7       110.7    
  39    110.7       110.7       110.7       110.7       110.7       110.7       110.7       110.7       110.7       110.7    
        110.7       110.7       110.7       110.7       110.7       110.7       110.7       110.7       110.7       110.7    
        110.7       110.7       110.7       110.7       110.7       110.7       110.7       110.7       110.7       110.7    
        110.7       110.7       110.7       110.7       110.7    
  40    110.7       110.7       110.7       110.7       110.7       110.7       110.7       110.7       110.7       110.7    
        110.7       110.7       110.7       110.7       110.7       110.7       110.7       110.7       110.7       110.7    
        110.7       110.7       110.7       110.7       110.7       110.7       110.7       110.7       110.7       110.7    
        110.7       110.7       110.7       110.7       110.7    
  41    110.7       110.7       110.7       110.7       110.7       110.7       110.7       110.7       110.7       110.7    
        110.7       110.7       110.7       110.7       110.7       110.7       110.7       110.7       110.7       110.7    
        110.7       110.7       110.7       110.7       110.7       110.7       110.7       110.7       110.7       110.7    
        110.7       110.7       110.7       110.7       110.7    
  42    110.7       110.7       110.7       110.7       110.7       110.7       110.7       110.7       110.7       110.7    
        110.7       110.7       110.7       110.7       110.7       110.7       110.7       110.7       110.7       110.7    
        110.7       110.7       110.7       110.7       110.7       110.7       110.7       110.7       110.7       110.7    
        110.7       110.7       110.7       110.7       110.7    
  43    110.7       110.7       110.7       110.7       110.7       110.7       110.7       110.7       110.7       110.7    
        110.7       110.7       110.7       110.7       110.7       110.7       110.7       110.7       110.7       110.7    
        110.7       110.7       110.7       110.7       110.7       110.7       110.7       110.7       110.7       110.7    
        110.7       110.7       110.7       110.7       110.7    
  44    110.7       110.7       110.7       110.7       110.7       110.7       110.7       110.7       110.7       110.7    
        110.7       110.7       110.7       110.7       110.7       110.7       110.7       110.7       110.7       110.7    
        110.7       110.7       110.7       110.7       110.7       110.7       110.7       110.7       110.7       110.7    
        110.7       110.7       110.7       110.7       110.7    
  45    110.7       110.7       110.7       110.7       110.7       110.7       110.7       110.7       110.7       110.7    
        110.7       110.7       110.7       110.7       110.7       110.7       110.7       110.7       110.7       110.7    
        110.7       110.7       110.7       110.7       110.7       110.7       110.7       110.7       110.7       110.7    
        110.7       110.7       110.7       110.7       110.7    



                       INITIAL HEAD FOR LAYER   4
 READING ON UNIT   13 WITH FORMAT: (FREE)              

            1           2           3           4           5           6           7           8           9          10
           11          12          13          14          15          16          17          18          19          20
           21          22          23          24          25          26          27          28          29          30
           31          32          33          34          35
 ........................................................................................................................
   1    110.7       110.7       110.7       110.7       110.7       110.7       110.7       110.7       110.7       110.7    
        110.8       110.8       110.8       110.8       110.8       110.8       110.8       110.8       110.8       110.8    
        110.8       110.8       110.8       110.7       110.7       110.7       110.7       110.7       110.7       110.7    
        110.7       110.7       110.7       110.7       110.7    
   2    110.7       110.7       110.7       110.7       110.7       110.7       110.7       110.7       110.7       110.7    
        110.8       110.8       110.8       110.8       110.8       110.8       110.8       110.8       110.8       110.8    
        110.8       110.8       110.8       110.7       110.7       110.7       110.7       110.7       110.7       110.7    
        110.7       110.7       110.7       110.7       110.7    
   3    110.7       110.7       110.7       110.7       110.7       110.7       110.7       110.7       110.7       110.7    
        110.7       110.8       110.8       110.8       110.8       110.8       110.8       110.8       110.8       110.8    
        110.8       110.8       110.7       110.7       110.7       110.7       110.7       110.7       110.7       110.7    
        110.7       110.7       110.7       110.7       110.7    
   4    110.7       110.7       110.7       110.7       110.7       110.7       110.7       110.7       110.7       110.7    
        110.7       110.8       110.8       110.8       110.8       110.8       110.8       110.8       110.8       110.8    
        110.8       110.8       110.7       110.7       110.7       110.7       110.7       110.7       110.7       110.7    
        110.7       110.7       110.7       110.7       110.7    
   5    110.7       110.7       110.7       110.7       110.7       110.7       110.7       110.7       110.7       110.7    
        110.7       110.8       110.8       110.8       110.8       110.8       110.8       110.8       110.8       110.8    
        110.8       110.7       110.7       110.7       110.7       110.7       110.7       110.7       110.7       110.7    
        110.7       110.7       110.7       110.7       110.7    
   6    110.7       110.7       110.7       110.7       110.7       110.7       110.7       110.7       110.7       110.7    
        110.7       110.7       110.8       110.8       110.8       110.8       110.8       110.8       110.8       110.8    
        110.7       110.7       110.7       110.7       110.7       110.7       110.7       110.7       110.7       110.7    
        110.7       110.7       110.7       110.7       110.7    
   7    110.7       110.7       110.7       110.7       110.7       110.7       110.7       110.7       110.7       110.7    
        110.7       110.7       110.7       110.8       110.8       110.8       110.8       110.8       110.8       110.7    
        110.7       110.7       110.7       110.7       110.7       110.7       110.7       110.7       110.7       110.7    
        110.7       110.7       110.7       110.7       110.7    
   8    110.7       110.7       110.7       110.7       110.7       110.7       110.7       110.7       110.7       110.7    
        110.7       110.7       110.7       110.7       110.7       110.7       110.7       110.7       110.7       110.7    
        110.7       110.7       110.7       110.7       110.7       110.7       110.7       110.7       110.7       110.7    
        110.7       110.7       110.7       110.7       110.7    
   9    110.7       110.7       110.7       110.7       110.7       110.7       110.7       110.7       110.7       110.7    
        110.7       110.7       110.7       110.7       110.7       110.7       110.7       110.7       110.7       110.7    
        110.7       110.7       110.7       110.7       110.7       110.7       110.7       110.7       110.7       110.7    
        110.7       110.7       110.7       110.7       110.7    
  10    110.7       110.7       110.7       110.7       110.7       110.7       110.7       110.7       110.7       110.7    
        110.7       110.7       110.7       110.7       110.7       110.7       110.7       110.7       110.7       110.7    
        110.7       110.7       110.7       110.7       110.7       110.7       110.7       110.7       110.7       110.7    
        110.7       110.7       110.7       110.7       110.7    
  11    110.7       110.7       110.7       110.7       110.7       110.7       110.7       110.7       110.7       110.7    
        110.7       110.7       110.7       110.7       110.7       110.7       110.7       110.7       110.7       110.7    
        110.7       110.7       110.7       110.7       110.7       110.7       110.7       110.7       110.7       110.7    
        110.7       110.7       110.7       110.7       110.7    
  12    110.7       110.7       110.7       110.7       110.7       110.7       110.7       110.7       110.7       110.7    
        110.7       110.7       110.7       110.7       110.7       110.7       110.7       110.7       110.7       110.7    
        110.7       110.7       110.7       110.7       110.7       110.7       110.7       110.7       110.7       110.7    
        110.7       110.7       110.7       110.7       110.7    
  13    110.7       110.7       110.7       110.7       110.7       110.7       110.7       110.7       110.7       110.7    
        110.7       110.7       110.7       110.7       110.7       110.7       110.7       110.7       110.7       110.7    
        110.7       110.7       110.7       110.7       110.7       110.7       110.7       110.7       110.7       110.7    
        110.7       110.7       110.7       110.7       110.7    
  14    110.7       110.7       110.7       110.7       110.7       110.7       110.7       110.7       110.7       110.7    
        110.7       110.7       110.7       110.7       110.7       110.7       110.7       110.7       110.7       110.7    
        110.7       110.7       110.7       110.7       110.7       110.7       110.7       110.7       110.7       110.7    
        110.7       110.7       110.7       110.7       110.7    
  15    110.7       110.7       110.7       110.7       110.7       110.7       110.7       110.7       110.7       110.7    
        110.7       110.7       110.7       110.7       110.7       110.7       110.7       110.7       110.7       110.7    
        110.7       110.7       110.7       110.7       110.7       110.7       110.7       110.7       110.7       110.7    
        110.7       110.7       110.7       110.7       110.7    
  16    110.7       110.7       110.7       110.7       110.7       110.7       110.7       110.7       110.7       110.7    
        110.7       110.7       110.7       110.7       110.7       110.7       110.7       110.7       110.7       110.7    
        110.7       110.7       110.7       110.7       110.7       110.7       110.7       110.7       110.7       110.7    
        110.7       110.7       110.7       110.7       110.7    
  17    110.7       110.7       110.7       110.7       110.7       110.7       110.7       110.7       110.7       110.7    
        110.7       110.7       110.7       110.7       110.7       110.7       110.7       110.7       110.7       110.7    
        110.7       110.7       110.7       110.7       110.7       110.7       110.7       110.7       110.7       110.7    
        110.7       110.7       110.7       110.7       110.7    
  18    110.7       110.7       110.7       110.7       110.7       110.7       110.7       110.7       110.7       110.7    
        110.7       110.7       110.7       110.7       110.7       110.7       110.7       110.7       110.7       110.7    
        110.7       110.7       110.7       110.7       110.7       110.7       110.7       110.7       110.7       110.7    
        110.7       110.7       110.7       110.7       110.7    
  19    110.7       110.7       110.7       110.7       110.7       110.7       110.7       110.7       110.7       110.7    
        110.7       110.7       110.7       110.7       110.7       110.7       110.7       110.7       110.7       110.7    
        110.7       110.7       110.7       110.7       110.7       110.7       110.7       110.7       110.7       110.7    
        110.7       110.7       110.7       110.7       110.7    
  20    110.7       110.7       110.7       110.7       110.7       110.7       110.7       110.7       110.7       110.7    
        110.7       110.7       110.7       110.7       110.7       110.7       110.7       110.7       110.7       110.7    
        110.7       110.7       110.7       110.7       110.7       110.7       110.7       110.7       110.7       110.7    
        110.7       110.7       110.7       110.7       110.7    
  21    110.7       110.7       110.7       110.7       110.7       110.7       110.7       110.7       110.7       110.7    
        110.7       110.7       110.7       110.7       110.7       110.7       110.7       110.7       110.7       110.7    
        110.7       110.7       110.7       110.7       110.7       110.7       110.7       110.7       110.7       110.7    
        110.7       110.7       110.7       110.7       110.7    
  22    110.7       110.7       110.7       110.7       110.7       110.7       110.7       110.7       110.7       110.7    
        110.7       110.7       110.7       110.7       110.7       110.7       110.7       110.7       110.7       110.7    
        110.7       110.7       110.7       110.7       110.7       110.7       110.7       110.7       110.7       110.7    
        110.7       110.7       110.7       110.7       110.7    
  23    110.7       110.7       110.7       110.7       110.7       110.7       110.7       110.7       110.7       110.7    
        110.7       110.7       110.7       110.7       110.7       110.7       110.7       110.7       110.7       110.7    
        110.7       110.7       110.7       110.7       110.7       110.7       110.7       110.7       110.7       110.7    
        110.7       110.7       110.7       110.7       110.7    
  24    110.7       110.7       110.7       110.7       110.7       110.7       110.7       110.7       110.7       110.7    
        110.7       110.7       110.7       110.7       110.7       110.7       110.7       110.7       110.7       110.7    
        110.7       110.7       110.7       110.7       110.7       110.7       110.7       110.7       110.7       110.7    
        110.7       110.7       110.7       110.7       110.7    
  25    110.7       110.7       110.7       110.7       110.7       110.7       110.7       110.7       110.7       110.7    
        110.7       110.7       110.7       110.7       110.7       110.7       110.7       110.7       110.7       110.7    
        110.7       110.7       110.7       110.7       110.7       110.7       110.7       110.7       110.7       110.7    
        110.7       110.7       110.7       110.7       110.7    
  26    110.7       110.7       110.7       110.7       110.7       110.7       110.7       110.7       110.7       110.7    
        110.7       110.7       110.7       110.7       110.7       110.7       110.7       110.7       110.7       110.7    
        110.7       110.7       110.7       110.7       110.7       110.7       110.7       110.7       110.7       110.7    
        110.7       110.7       110.7       110.7       110.7    
  27    110.7       110.7       110.7       110.7       110.7       110.7       110.7       110.7       110.7       110.7    
        110.7       110.7       110.7       110.7       110.7       110.7       110.7       110.7       110.7       110.7    
        110.7       110.7       110.7       110.7       110.7       110.7       110.7       110.7       110.7       110.7    
        110.7       110.7       110.7       110.7       110.7    
  28    110.7       110.7       110.7       110.7       110.7       110.7       110.7       110.7       110.7       110.7    
        110.7       110.7       110.7       110.7       110.7       110.7       110.7       110.7       110.7       110.7    
        110.7       110.7       110.7       110.7       110.7       110.7       110.7       110.7       110.7       110.7    
        110.7       110.7       110.7       110.7       110.7    
  29    110.7       110.7       110.7       110.7       110.7       110.7       110.7       110.7       110.7       110.7    
        110.7       110.7       110.7       110.7       110.7       110.7       110.7       110.7       110.7       110.7    
        110.7       110.7       110.7       110.7       110.7       110.7       110.7       110.7       110.7       110.7    
        110.7       110.7       110.7       110.7       110.7    
  30    110.7       110.7       110.7       110.7       110.7       110.7       110.7       110.7       110.7       110.7    
        110.7       110.7       110.7       110.7       110.7       110.7       110.7       110.7       110.7       110.7    
        110.7       110.7       110.7       110.7       110.7       110.7       110.7       110.7       110.7       110.7    
        110.7       110.7       110.7       110.7       110.7    
  31    110.7       110.7       110.7       110.7       110.7       110.7       110.7       110.7       110.7       110.7    
        110.7       110.7       110.7       110.7       110.7       110.7       110.7       110.7       110.7       110.7    
        110.7       110.7       110.7       110.7       110.7       110.7       110.7       110.7       110.7       110.7    
        110.7       110.7       110.7       110.7       110.7    
  32    110.7       110.7       110.7       110.7       110.7       110.7       110.7       110.7       110.7       110.7    
        110.7       110.7       110.7       110.7       110.7       110.7       110.7       110.7       110.7       110.7    
        110.7       110.7       110.7       110.7       110.7       110.7       110.7       110.7       110.7       110.7    
        110.7       110.7       110.7       110.7       110.7    
  33    110.7       110.7       110.7       110.7       110.7       110.7       110.7       110.7       110.7       110.7    
        110.7       110.7       110.7       110.7       110.7       110.7       110.7       110.7       110.7       110.7    
        110.7       110.7       110.7       110.7       110.7       110.7       110.7       110.7       110.7       110.7    
        110.7       110.7       110.7       110.7       110.7    
  34    110.7       110.7       110.7       110.7       110.7       110.7       110.7       110.7       110.7       110.7    
        110.7       110.7       110.7       110.7       110.7       110.7       110.7       110.7       110.7       110.7    
        110.7       110.7       110.7       110.7       110.7       110.7       110.7       110.7       110.7       110.7    
        110.7       110.7       110.7       110.7       110.7    
  35    110.7       110.7       110.7       110.7       110.7       110.7       110.7       110.7       110.7       110.7    
        110.7       110.7       110.7       110.7       110.7       110.7       110.7       110.7       110.7       110.7    
        110.7       110.7       110.7       110.7       110.7       110.7       110.7       110.7       110.7       110.7    
        110.7       110.7       110.7       110.7       110.7    
  36    110.7       110.7       110.7       110.7       110.7       110.7       110.7       110.7       110.7       110.7    
        110.7       110.7       110.7       110.7       110.7       110.7       110.7       110.7       110.7       110.7    
        110.7       110.7       110.7       110.7       110.7       110.7       110.7       110.7       110.7       110.7    
        110.7       110.7       110.7       110.7       110.7    
  37    110.7       110.7       110.7       110.7       110.7       110.7       110.7       110.7       110.7       110.7    
        110.7       110.7       110.7       110.7       110.7       110.7       110.7       110.7       110.7       110.7    
        110.7       110.7       110.7       110.7       110.7       110.7       110.7       110.7       110.7       110.7    
        110.7       110.7       110.7       110.7       110.7    
  38    110.7       110.7       110.7       110.7       110.7       110.7       110.7       110.7       110.7       110.7    
        110.7       110.7       110.7       110.7       110.7       110.7       110.7       110.7       110.7       110.7    
        110.7       110.7       110.7       110.7       110.7       110.7       110.7       110.7       110.7       110.7    
        110.7       110.7       110.7       110.7       110.7    
  39    110.7       110.7       110.7       110.7       110.7       110.7       110.7       110.7       110.7       110.7    
        110.7       110.7       110.7       110.7       110.7       110.7       110.7       110.7       110.7       110.7    
        110.7       110.7       110.7       110.7       110.7       110.7       110.7       110.7       110.7       110.7    
        110.7       110.7       110.7       110.7       110.7    
  40    110.7       110.7       110.7       110.7       110.7       110.7       110.7       110.7       110.7       110.7    
        110.7       110.7       110.7       110.7       110.7       110.7       110.7       110.7       110.7       110.7    
        110.7       110.7       110.7       110.7       110.7       110.7       110.7       110.7       110.7       110.7    
        110.7       110.7       110.7       110.7       110.7    
  41    110.7       110.7       110.7       110.7       110.7       110.7       110.7       110.7       110.7       110.7    
        110.7       110.7       110.7       110.7       110.7       110.7       110.7       110.7       110.7       110.7    
        110.7       110.7       110.7       110.7       110.7       110.7       110.7       110.7       110.7       110.7    
        110.7       110.7       110.7       110.7       110.7    
  42    110.7       110.7       110.7       110.7       110.7       110.7       110.7       110.7       110.7       110.7    
        110.7       110.7       110.7       110.7       110.7       110.7       110.7       110.7       110.7       110.7    
        110.7       110.7       110.7       110.7       110.7       110.7       110.7       110.7       110.7       110.7    
        110.7       110.7       110.7       110.7       110.7    
  43    110.7       110.7       110.7       110.7       110.7       110.7       110.7       110.7       110.7       110.7    
        110.7       110.7       110.7       110.7       110.7       110.7       110.7       110.7       110.7       110.7    
        110.7       110.7       110.7       110.7       110.7       110.7       110.7       110.7       110.7       110.7    
        110.7       110.7       110.7       110.7       110.7    
  44    110.7       110.7       110.7       110.7       110.7       110.7       110.7       110.7       110.7       110.7    
        110.7       110.7       110.7       110.7       110.7       110.7       110.7       110.7       110.7       110.7    
        110.7       110.7       110.7       110.7       110.7       110.7       110.7       110.7       110.7       110.7    
        110.7       110.7       110.7       110.7       110.7    
  45    110.7       110.7       110.7       110.7       110.7       110.7       110.7       110.7       110.7       110.7    
        110.7       110.7       110.7       110.7       110.7       110.7       110.7       110.7       110.7       110.7    
        110.7       110.7       110.7       110.7       110.7       110.7       110.7       110.7       110.7       110.7    
        110.7       110.7       110.7       110.7       110.7    



                       INITIAL HEAD FOR LAYER   5
 READING ON UNIT   13 WITH FORMAT: (FREE)              

            1           2           3           4           5           6           7           8           9          10
           11          12          13          14          15          16          17          18          19          20
           21          22          23          24          25          26          27          28          29          30
           31          32          33          34          35
 ........................................................................................................................
   1    110.7       110.7       110.7       110.7       110.7       110.7       110.7       110.7       110.7       110.7    
        110.8       110.8       110.8       110.8       110.8       110.8       110.8       110.8       110.8       110.8    
        110.8       110.8       110.8       110.7       110.7       110.7       110.7       110.7       110.7       110.7    
        110.7       110.7       110.7       110.7       110.7    
   2    110.7       110.7       110.7       110.7       110.7       110.7       110.7       110.7       110.7       110.7    
        110.8       110.8       110.8       110.8       110.8       110.8       110.8       110.8       110.8       110.8    
        110.8       110.8       110.8       110.7       110.7       110.7       110.7       110.7       110.7       110.7    
        110.7       110.7       110.7       110.7       110.7    
   3    110.7       110.7       110.7       110.7       110.7       110.7       110.7       110.7       110.7       110.7    
        110.7       110.8       110.8       110.8       110.8       110.8       110.8       110.8       110.8       110.8    
        110.8       110.8       110.7       110.7       110.7       110.7       110.7       110.7       110.7       110.7    
        110.7       110.7       110.7       110.7       110.7    
   4    110.7       110.7       110.7       110.7       110.7       110.7       110.7       110.7       110.7       110.7    
        110.7       110.8       110.8       110.8       110.8       110.8       110.8       110.8       110.8       110.8    
        110.8       110.8       110.7       110.7       110.7       110.7       110.7       110.7       110.7       110.7    
        110.7       110.7       110.7       110.7       110.7    
   5    110.7       110.7       110.7       110.7       110.7       110.7       110.7       110.7       110.7       110.7    
        110.7       110.8       110.8       110.8       110.8       110.8       110.8       110.8       110.8       110.8    
        110.8       110.7       110.7       110.7       110.7       110.7       110.7       110.7       110.7       110.7    
        110.7       110.7       110.7       110.7       110.7    
   6    110.7       110.7       110.7       110.7       110.7       110.7       110.7       110.7       110.7       110.7    
        110.7       110.7       110.8       110.8       110.8       110.8       110.8       110.8       110.8       110.8    
        110.7       110.7       110.7       110.7       110.7       110.7       110.7       110.7       110.7       110.7    
        110.7       110.7       110.7       110.7       110.7    
   7    110.7       110.7       110.7       110.7       110.7       110.7       110.7       110.7       110.7       110.7    
        110.7       110.7       110.7       110.8       110.8       110.8       110.8       110.8       110.8       110.7    
        110.7       110.7       110.7       110.7       110.7       110.7       110.7       110.7       110.7       110.7    
        110.7       110.7       110.7       110.7       110.7    
   8    110.7       110.7       110.7       110.7       110.7       110.7       110.7       110.7       110.7       110.7    
        110.7       110.7       110.7       110.7       110.7       110.7       110.7       110.7       110.7       110.7    
        110.7       110.7       110.7       110.7       110.7       110.7       110.7       110.7       110.7       110.7    
        110.7       110.7       110.7       110.7       110.7    
   9    110.7       110.7       110.7       110.7       110.7       110.7       110.7       110.7       110.7       110.7    
        110.7       110.7       110.7       110.7       110.7       110.7       110.7       110.7       110.7       110.7    
        110.7       110.7       110.7       110.7       110.7       110.7       110.7       110.7       110.7       110.7    
        110.7       110.7       110.7       110.7       110.7    
  10    110.7       110.7       110.7       110.7       110.7       110.7       110.7       110.7       110.7       110.7    
        110.7       110.7       110.7       110.7       110.7       110.7       110.7       110.7       110.7       110.7    
        110.7       110.7       110.7       110.7       110.7       110.7       110.7       110.7       110.7       110.7    
        110.7       110.7       110.7       110.7       110.7    
  11    110.7       110.7       110.7       110.7       110.7       110.7       110.7       110.7       110.7       110.7    
        110.7       110.7       110.7       110.7       110.7       110.7       110.7       110.7       110.7       110.7    
        110.7       110.7       110.7       110.7       110.7       110.7       110.7       110.7       110.7       110.7    
        110.7       110.7       110.7       110.7       110.7    
  12    110.7       110.7       110.7       110.7       110.7       110.7       110.7       110.7       110.7       110.7    
        110.7       110.7       110.7       110.7       110.7       110.7       110.7       110.7       110.7       110.7    
        110.7       110.7       110.7       110.7       110.7       110.7       110.7       110.7       110.7       110.7    
        110.7       110.7       110.7       110.7       110.7    
  13    110.7       110.7       110.7       110.7       110.7       110.7       110.7       110.7       110.7       110.7    
        110.7       110.7       110.7       110.7       110.7       110.7       110.7       110.7       110.7       110.7    
        110.7       110.7       110.7       110.7       110.7       110.7       110.7       110.7       110.7       110.7    
        110.7       110.7       110.7       110.7       110.7    
  14    110.7       110.7       110.7       110.7       110.7       110.7       110.7       110.7       110.7       110.7    
        110.7       110.7       110.7       110.7       110.7       110.7       110.7       110.7       110.7       110.7    
        110.7       110.7       110.7       110.7       110.7       110.7       110.7       110.7       110.7       110.7    
        110.7       110.7       110.7       110.7       110.7    
  15    110.7       110.7       110.7       110.7       110.7       110.7       110.7       110.7       110.7       110.7    
        110.7       110.7       110.7       110.7       110.7       110.7       110.7       110.7       110.7       110.7    
        110.7       110.7       110.7       110.7       110.7       110.7       110.7       110.7       110.7       110.7    
        110.7       110.7       110.7       110.7       110.7    
  16    110.7       110.7       110.7       110.7       110.7       110.7       110.7       110.7       110.7       110.7    
        110.7       110.7       110.7       110.7       110.7       110.7       110.7       110.7       110.7       110.7    
        110.7       110.7       110.7       110.7       110.7       110.7       110.7       110.7       110.7       110.7    
        110.7       110.7       110.7       110.7       110.7    
  17    110.7       110.7       110.7       110.7       110.7       110.7       110.7       110.7       110.7       110.7    
        110.7       110.7       110.7       110.7       110.7       110.7       110.7       110.7       110.7       110.7    
        110.7       110.7       110.7       110.7       110.7       110.7       110.7       110.7       110.7       110.7    
        110.7       110.7       110.7       110.7       110.7    
  18    110.7       110.7       110.7       110.7       110.7       110.7       110.7       110.7       110.7       110.7    
        110.7       110.7       110.7       110.7       110.7       110.7       110.7       110.7       110.7       110.7    
        110.7       110.7       110.7       110.7       110.7       110.7       110.7       110.7       110.7       110.7    
        110.7       110.7       110.7       110.7       110.7    
  19    110.7       110.7       110.7       110.7       110.7       110.7       110.7       110.7       110.7       110.7    
        110.7       110.7       110.7       110.7       110.7       110.7       110.7       110.7       110.7       110.7    
        110.7       110.7       110.7       110.7       110.7       110.7       110.7       110.7       110.7       110.7    
        110.7       110.7       110.7       110.7       110.7    
  20    110.7       110.7       110.7       110.7       110.7       110.7       110.7       110.7       110.7       110.7    
        110.7       110.7       110.7       110.7       110.7       110.7       110.7       110.7       110.7       110.7    
        110.7       110.7       110.7       110.7       110.7       110.7       110.7       110.7       110.7       110.7    
        110.7       110.7       110.7       110.7       110.7    
  21    110.7       110.7       110.7       110.7       110.7       110.7       110.7       110.7       110.7       110.7    
        110.7       110.7       110.7       110.7       110.7       110.7       110.7       110.7       110.7       110.7    
        110.7       110.7       110.7       110.7       110.7       110.7       110.7       110.7       110.7       110.7    
        110.7       110.7       110.7       110.7       110.7    
  22    110.7       110.7       110.7       110.7       110.7       110.7       110.7       110.7       110.7       110.7    
        110.7       110.7       110.7       110.7       110.7       110.7       110.7       110.7       110.7       110.7    
        110.7       110.7       110.7       110.7       110.7       110.7       110.7       110.7       110.7       110.7    
        110.7       110.7       110.7       110.7       110.7    
  23    110.7       110.7       110.7       110.7       110.7       110.7       110.7       110.7       110.7       110.7    
        110.7       110.7       110.7       110.7       110.7       110.7       110.7       110.7       110.7       110.7    
        110.7       110.7       110.7       110.7       110.7       110.7       110.7       110.7       110.7       110.7    
        110.7       110.7       110.7       110.7       110.7    
  24    110.7       110.7       110.7       110.7       110.7       110.7       110.7       110.7       110.7       110.7    
        110.7       110.7       110.7       110.7       110.7       110.7       110.7       110.7       110.7       110.7    
        110.7       110.7       110.7       110.7       110.7       110.7       110.7       110.7       110.7       110.7    
        110.7       110.7       110.7       110.7       110.7    
  25    110.7       110.7       110.7       110.7       110.7       110.7       110.7       110.7       110.7       110.7    
        110.7       110.7       110.7       110.7       110.7       110.7       110.7       110.7       110.7       110.7    
        110.7       110.7       110.7       110.7       110.7       110.7       110.7       110.7       110.7       110.7    
        110.7       110.7       110.7       110.7       110.7    
  26    110.7       110.7       110.7       110.7       110.7       110.7       110.7       110.7       110.7       110.7    
        110.7       110.7       110.7       110.7       110.7       110.7       110.7       110.7       110.7       110.7    
        110.7       110.7       110.7       110.7       110.7       110.7       110.7       110.7       110.7       110.7    
        110.7       110.7       110.7       110.7       110.7    
  27    110.7       110.7       110.7       110.7       110.7       110.7       110.7       110.7       110.7       110.7    
        110.7       110.7       110.7       110.7       110.7       110.7       110.7       110.7       110.7       110.7    
        110.7       110.7       110.7       110.7       110.7       110.7       110.7       110.7       110.7       110.7    
        110.7       110.7       110.7       110.7       110.7    
  28    110.7       110.7       110.7       110.7       110.7       110.7       110.7       110.7       110.7       110.7    
        110.7       110.7       110.7       110.7       110.7       110.7       110.7       110.7       110.7       110.7    
        110.7       110.7       110.7       110.7       110.7       110.7       110.7       110.7       110.7       110.7    
        110.7       110.7       110.7       110.7       110.7    
  29    110.7       110.7       110.7       110.7       110.7       110.7       110.7       110.7       110.7       110.7    
        110.7       110.7       110.7       110.7       110.7       110.7       110.7       110.7       110.7       110.7    
        110.7       110.7       110.7       110.7       110.7       110.7       110.7       110.7       110.7       110.7    
        110.7       110.7       110.7       110.7       110.7    
  30    110.7       110.7       110.7       110.7       110.7       110.7       110.7       110.7       110.7       110.7    
        110.7       110.7       110.7       110.7       110.7       110.7       110.7       110.7       110.7       110.7    
        110.7       110.7       110.7       110.7       110.7       110.7       110.7       110.7       110.7       110.7    
        110.7       110.7       110.7       110.7       110.7    
  31    110.7       110.7       110.7       110.7       110.7       110.7       110.7       110.7       110.7       110.7    
        110.7       110.7       110.7       110.7       110.7       110.7       110.7       110.7       110.7       110.7    
        110.7       110.7       110.7       110.7       110.7       110.7       110.7       110.7       110.7       110.7    
        110.7       110.7       110.7       110.7       110.7    
  32    110.7       110.7       110.7       110.7       110.7       110.7       110.7       110.7       110.7       110.7    
        110.7       110.7       110.7       110.7       110.7       110.7       110.7       110.7       110.7       110.7    
        110.7       110.7       110.7       110.7       110.7       110.7       110.7       110.7       110.7       110.7    
        110.7       110.7       110.7       110.7       110.7    
  33    110.7       110.7       110.7       110.7       110.7       110.7       110.7       110.7       110.7       110.7    
        110.7       110.7       110.7       110.7       110.7       110.7       110.7       110.7       110.7       110.7    
        110.7       110.7       110.7       110.7       110.7       110.7       110.7       110.7       110.7       110.7    
        110.7       110.7       110.7       110.7       110.7    
  34    110.7       110.7       110.7       110.7       110.7       110.7       110.7       110.7       110.7       110.7    
        110.7       110.7       110.7       110.7       110.7       110.7       110.7       110.7       110.7       110.7    
        110.7       110.7       110.7       110.7       110.7       110.7       110.7       110.7       110.7       110.7    
        110.7       110.7       110.7       110.7       110.7    
  35    110.7       110.7       110.7       110.7       110.7       110.7       110.7       110.7       110.7       110.7    
        110.7       110.7       110.7       110.7       110.7       110.7       110.7       110.7       110.7       110.7    
        110.7       110.7       110.7       110.7       110.7       110.7       110.7       110.7       110.7       110.7    
        110.7       110.7       110.7       110.7       110.7    
  36    110.7       110.7       110.7       110.7       110.7       110.7       110.7       110.7       110.7       110.7    
        110.7       110.7       110.7       110.7       110.7       110.7       110.7       110.7       110.7       110.7    
        110.7       110.7       110.7       110.7       110.7       110.7       110.7       110.7       110.7       110.7    
        110.7       110.7       110.7       110.7       110.7    
  37    110.7       110.7       110.7       110.7       110.7       110.7       110.7       110.7       110.7       110.7    
        110.7       110.7       110.7       110.7       110.7       110.7       110.7       110.7       110.7       110.7    
        110.7       110.7       110.7       110.7       110.7       110.7       110.7       110.7       110.7       110.7    
        110.7       110.7       110.7       110.7       110.7    
  38    110.7       110.7       110.7       110.7       110.7       110.7       110.7       110.7       110.7       110.7    
        110.7       110.7       110.7       110.7       110.7       110.7       110.7       110.7       110.7       110.7    
        110.7       110.7       110.7       110.7       110.7       110.7       110.7       110.7       110.7       110.7    
        110.7       110.7       110.7       110.7       110.7    
  39    110.7       110.7       110.7       110.7       110.7       110.7       110.7       110.7       110.7       110.7    
        110.7       110.7       110.7       110.7       110.7       110.7       110.7       110.7       110.7       110.7    
        110.7       110.7       110.7       110.7       110.7       110.7       110.7       110.7       110.7       110.7    
        110.7       110.7       110.7       110.7       110.7    
  40    110.7       110.7       110.7       110.7       110.7       110.7       110.7       110.7       110.7       110.7    
        110.7       110.7       110.7       110.7       110.7       110.7       110.7       110.7       110.7       110.7    
        110.7       110.7       110.7       110.7       110.7       110.7       110.7       110.7       110.7       110.7    
        110.7       110.7       110.7       110.7       110.7    
  41    110.7       110.7       110.7       110.7       110.7       110.7       110.7       110.7       110.7       110.7    
        110.7       110.7       110.7       110.7       110.7       110.7       110.7       110.7       110.7       110.7    
        110.7       110.7       110.7       110.7       110.7       110.7       110.7       110.7       110.7       110.7    
        110.7       110.7       110.7       110.7       110.7    
  42    110.7       110.7       110.7       110.7       110.7       110.7       110.7       110.7       110.7       110.7    
        110.7       110.7       110.7       110.7       110.7       110.7       110.7       110.7       110.7       110.7    
        110.7       110.7       110.7       110.7       110.7       110.7       110.7       110.7       110.7       110.7    
        110.7       110.7       110.7       110.7       110.7    
  43    110.7       110.7       110.7       110.7       110.7       110.7       110.7       110.7       110.7       110.7    
        110.7       110.7       110.7       110.7       110.7       110.7       110.7       110.7       110.7       110.7    
        110.7       110.7       110.7       110.7       110.7       110.7       110.7       110.7       110.7       110.7    
        110.7       110.7       110.7       110.7       110.7    
  44    110.7       110.7       110.7       110.7       110.7       110.7       110.7       110.7       110.7       110.7    
        110.7       110.7       110.7       110.7       110.7       110.7       110.7       110.7       110.7       110.7    
        110.7       110.7       110.7       110.7       110.7       110.7       110.7       110.7       110.7       110.7    
        110.7       110.7       110.7       110.7       110.7    
  45    110.7       110.7       110.7       110.7       110.7       110.7       110.7       110.7       110.7       110.7    
        110.7       110.7       110.7       110.7       110.7       110.7       110.7       110.7       110.7       110.7    
        110.7       110.7       110.7       110.7       110.7       110.7       110.7       110.7       110.7       110.7    
        110.7       110.7       110.7       110.7       110.7    
 # Output Control file created on 07.07.2016 by ModelMuse version 3.7.1.0.

 OUTPUT CONTROL IS SPECIFIED ONLY AT TIME STEPS FOR WHICH OUTPUT IS DESIRED
 HEADS WILL BE SAVED WITH FORMAT: (10(1X1PE13.5))     
 SAVED HEADS WILL BE LABELED
 DRAWDOWN WILL BE SAVED WITH FORMAT: (10(1X1PE13.5))     
 SAVED DRAWDOWN WILL BE LABELED
 COMPACT CELL-BY-CELL BUDGET FILES WILL BE WRITTEN
 AUXILIARY DATA WILL BE SAVED IN CELL-BY-CELL BUDGET FILES
 HEAD PRINT FORMAT CODE IS   0    DRAWDOWN PRINT FORMAT CODE IS   0
 HEADS WILL BE SAVED ON UNIT   37    DRAWDOWNS WILL BE SAVED ON UNIT   38

 LPF -- LAYER-PROPERTY FLOW PACKAGE, VERSION 7, 5/2/2005
         INPUT READ FROM UNIT   14
 # LPF: Layer Property Flow package file created on 07.07.2016 by ModelMuse version 3.7.1.0.
 CELL-BY-CELL FLOWS WILL BE SAVED ON UNIT    9
 HEAD AT CELLS THAT CONVERT TO DRY= -1.00000E+20
 No named parameters

   LAYER FLAGS:
 LAYER       LAYTYP        LAYAVG         CHANI        LAYVKA        LAYWET
 ---------------------------------------------------------------------------
    1             1             0    -1.000E+00             0             1
    2             1             0    -1.000E+00             0             1
    3             1             0    -1.000E+00             0             1
    4             1             0    -1.000E+00             0             1
    5             1             0    -1.000E+00             0             1

   INTERPRETATION OF LAYER FLAGS:
                        INTERBLOCK     HORIZONTAL    DATA IN
         LAYER TYPE   TRANSMISSIVITY   ANISOTROPY   ARRAY VKA   WETTABILITY
 LAYER      (LAYTYP)      (LAYAVG)       (CHANI)      (LAYVKA)      (LAYWET)
 ---------------------------------------------------------------------------
    1   CONVERTIBLE      HARMONIC      VARIABLE    VERTICAL K      WETTABLE
    2   CONVERTIBLE      HARMONIC      VARIABLE    VERTICAL K      WETTABLE
    3   CONVERTIBLE      HARMONIC      VARIABLE    VERTICAL K      WETTABLE
    4   CONVERTIBLE      HARMONIC      VARIABLE    VERTICAL K      WETTABLE
    5   CONVERTIBLE      HARMONIC      VARIABLE    VERTICAL K      WETTABLE

 WETTING CAPABILITY IS ACTIVE IN   5 LAYERS
  WETTING FACTOR=  0.500000000    
  WETTING ITERATION INTERVAL=          20
  IHDWET=           1



              HYD. COND. ALONG ROWS FOR LAYER   1
 READING ON UNIT   14 WITH FORMAT: (FREE)              

            1           2           3           4           5           6           7           8           9          10
           11          12          13          14          15          16          17          18          19          20
           21          22          23          24          25          26          27          28          29          30
           31          32          33          34          35
 ........................................................................................................................
   1   7.5000E-04  7.5000E-04  7.5000E-04  7.5000E-04  7.4000E-04  7.4000E-04  7.4000E-04  7.3000E-04  7.3000E-04  7.3000E-04
       7.2000E-04  7.2000E-04  7.1000E-04  7.1000E-04  7.1000E-04  7.0000E-04  7.0000E-04  7.0000E-04  7.0000E-04  7.0000E-04
       7.1000E-04  7.1000E-04  7.2000E-04  7.2000E-04  7.3000E-04  7.3000E-04  7.4000E-04  7.4000E-04  7.5000E-04  7.5000E-04
       7.5000E-04  7.6000E-04  7.6000E-04  7.6000E-04  7.6000E-04
   2   7.5000E-04  7.5000E-04  7.5000E-04  7.5000E-04  7.4000E-04  7.4000E-04  7.4000E-04  7.4000E-04  7.3000E-04  7.3000E-04
       7.2000E-04  7.2000E-04  7.1000E-04  7.1000E-04  7.0000E-04  7.0000E-04  7.0000E-04  7.0000E-04  7.0000E-04  7.0000E-04
       7.0000E-04  7.1000E-04  7.1000E-04  7.2000E-04  7.3000E-04  7.3000E-04  7.4000E-04  7.4000E-04  7.5000E-04  7.5000E-04
       7.5000E-04  7.6000E-04  7.6000E-04  7.6000E-04  7.6000E-04
   3   7.5000E-04  7.5000E-04  7.5000E-04  7.5000E-04  7.5000E-04  7.4000E-04  7.4000E-04  7.4000E-04  7.3000E-04  7.3000E-04
       7.2000E-04  7.2000E-04  7.1000E-04  7.1000E-04  7.0000E-04  7.0000E-04  6.9000E-04  6.9000E-04  6.9000E-04  7.0000E-04
       7.0000E-04  7.1000E-04  7.1000E-04  7.2000E-04  7.3000E-04  7.3000E-04  7.4000E-04  7.4000E-04  7.5000E-04  7.5000E-04
       7.6000E-04  7.6000E-04  7.6000E-04  7.6000E-04  7.7000E-04
   4   7.6000E-04  7.5000E-04  7.5000E-04  7.5000E-04  7.5000E-04  7.5000E-04  7.4000E-04  7.4000E-04  7.4000E-04  7.3000E-04
       7.3000E-04  7.2000E-04  7.1000E-04  7.1000E-04  7.0000E-04  6.9000E-04  6.9000E-04  6.9000E-04  6.9000E-04  6.9000E-04
       7.0000E-04  7.1000E-04  7.1000E-04  7.2000E-04  7.3000E-04  7.3000E-04  7.4000E-04  7.5000E-04  7.5000E-04  7.5000E-04
       7.6000E-04  7.6000E-04  7.6000E-04  7.7000E-04  7.7000E-04
   5   7.6000E-04  7.6000E-04  7.5000E-04  7.5000E-04  7.5000E-04  7.5000E-04  7.5000E-04  7.4000E-04  7.4000E-04  7.3000E-04
       7.3000E-04  7.2000E-04  7.2000E-04  7.1000E-04  7.0000E-04  6.9000E-04  6.8000E-04  6.8000E-04  6.8000E-04  6.9000E-04
       7.0000E-04  7.1000E-04  7.1000E-04  7.2000E-04  7.3000E-04  7.4000E-04  7.4000E-04  7.5000E-04  7.5000E-04  7.6000E-04
       7.6000E-04  7.6000E-04  7.7000E-04  7.7000E-04  7.7000E-04
   6   7.6000E-04  7.6000E-04  7.6000E-04  7.6000E-04  7.5000E-04  7.5000E-04  7.5000E-04  7.5000E-04  7.4000E-04  7.4000E-04
       7.3000E-04  7.3000E-04  7.2000E-04  7.1000E-04  7.0000E-04  6.9000E-04  6.8000E-04  6.8000E-04  6.8000E-04  6.9000E-04
       7.0000E-04  7.1000E-04  7.2000E-04  7.2000E-04  7.3000E-04  7.4000E-04  7.4000E-04  7.5000E-04  7.6000E-04  7.6000E-04
       7.6000E-04  7.7000E-04  7.7000E-04  7.7000E-04  7.7000E-04
   7   7.6000E-04  7.6000E-04  7.6000E-04  7.6000E-04  7.6000E-04  7.6000E-04  7.5000E-04  7.5000E-04  7.5000E-04  7.4000E-04
       7.4000E-04  7.3000E-04  7.2000E-04  7.1000E-04  7.0000E-04  6.9000E-04  6.8000E-04  6.7000E-04  6.8000E-04  6.9000E-04
       7.0000E-04  7.1000E-04  7.2000E-04  7.3000E-04  7.3000E-04  7.4000E-04  7.5000E-04  7.5000E-04  7.6000E-04  7.6000E-04
       7.7000E-04  7.7000E-04  7.7000E-04  7.7000E-04  7.8000E-04
   8   7.6000E-04  7.6000E-04  7.6000E-04  7.6000E-04  7.6000E-04  7.6000E-04  7.6000E-04  7.6000E-04  7.6000E-04  7.5000E-04
       7.5000E-04  7.4000E-04  7.3000E-04  7.2000E-04  7.1000E-04  7.0000E-04  6.9000E-04  6.9000E-04  6.9000E-04  7.0000E-04
       7.0000E-04  7.1000E-04  7.2000E-04  7.3000E-04  7.4000E-04  7.5000E-04  7.5000E-04  7.6000E-04  7.6000E-04  7.7000E-04
       7.7000E-04  7.7000E-04  7.8000E-04  7.8000E-04  7.8000E-04
   9   7.7000E-04  7.7000E-04  7.7000E-04  7.7000E-04  7.7000E-04  7.7000E-04  7.7000E-04  7.7000E-04  7.7000E-04  7.6000E-04
       7.6000E-04  7.5000E-04  7.4000E-04  7.3000E-04  7.2000E-04  7.1000E-04  7.0000E-04  7.0000E-04  7.0000E-04  7.0000E-04
       7.1000E-04  7.2000E-04  7.3000E-04  7.3000E-04  7.4000E-04  7.5000E-04  7.6000E-04  7.7000E-04  7.7000E-04  7.7000E-04
       7.8000E-04  7.8000E-04  7.8000E-04  7.8000E-04  7.8000E-04
  10   7.7000E-04  7.7000E-04  7.7000E-04  7.7000E-04  7.7000E-04  7.7000E-04  7.7000E-04  7.7000E-04  7.8000E-04  7.7000E-04
       7.7000E-04  7.6000E-04  7.5000E-04  7.4000E-04  7.3000E-04  7.2000E-04  7.1000E-04  7.1000E-04  7.1000E-04  7.1000E-04
       7.1000E-04  7.2000E-04  7.3000E-04  7.4000E-04  7.5000E-04  7.6000E-04  7.6000E-04  7.7000E-04  7.8000E-04  7.8000E-04
       7.8000E-04  7.8000E-04  7.8000E-04  7.8000E-04  7.8000E-04
  11   7.7000E-04  7.7000E-04  7.7000E-04  7.8000E-04  7.8000E-04  7.8000E-04  7.8000E-04  7.8000E-04  7.9000E-04  7.9000E-04
       7.8000E-04  7.7000E-04  7.6000E-04  7.5000E-04  7.4000E-04  7.3000E-04  7.2000E-04  7.1000E-04  7.1000E-04  7.1000E-04
       7.2000E-04  7.2000E-04  7.3000E-04  7.4000E-04  7.5000E-04  7.6000E-04  7.7000E-04  7.8000E-04  7.8000E-04  7.8000E-04
       7.9000E-04  7.9000E-04  7.9000E-04  7.9000E-04  7.9000E-04
  12   7.7000E-04  7.8000E-04  7.8000E-04  7.8000E-04  7.8000E-04  7.8000E-04  7.9000E-04  7.9000E-04  8.0000E-04  8.0000E-04
       7.9000E-04  7.8000E-04  7.7000E-04  7.5000E-04  7.4000E-04  7.3000E-04  7.2000E-04  7.2000E-04  7.1000E-04  7.1000E-04
       7.2000E-04  7.2000E-04  7.3000E-04  7.4000E-04  7.5000E-04  7.7000E-04  7.8000E-04  7.8000E-04  7.9000E-04  7.9000E-04
       7.9000E-04  7.9000E-04  7.9000E-04  7.9000E-04  7.9000E-04
  13   7.7000E-04  7.8000E-04  7.8000E-04  7.8000E-04  7.9000E-04  7.9000E-04  7.9000E-04  8.0000E-04  8.0000E-04  8.1000E-04
       8.1000E-04  7.9000E-04  7.7000E-04  7.6000E-04  7.4000E-04  7.3000E-04  7.2000E-04  7.2000E-04  7.1000E-04  7.1000E-04
       7.2000E-04  7.2000E-04  7.3000E-04  7.4000E-04  7.6000E-04  7.7000E-04  7.8000E-04  7.9000E-04  7.9000E-04  7.9000E-04
       7.9000E-04  7.9000E-04  7.9000E-04  7.9000E-04  7.9000E-04
  14   7.7000E-04  7.8000E-04  7.8000E-04  7.8000E-04  7.9000E-04  7.9000E-04  7.9000E-04  8.0000E-04  8.0000E-04  8.0000E-04
       8.0000E-04  7.9000E-04  7.7000E-04  7.6000E-04  7.4000E-04  7.3000E-04  7.2000E-04  7.1000E-04  7.1000E-04  7.1000E-04
       7.1000E-04  7.2000E-04  7.3000E-04  7.4000E-04  7.6000E-04  7.7000E-04  7.9000E-04  7.9000E-04  8.0000E-04  7.9000E-04
       7.9000E-04  7.9000E-04  7.9000E-04  7.9000E-04  7.9000E-04
  15   7.7000E-04  7.8000E-04  7.8000E-04  7.8000E-04  7.9000E-04  7.9000E-04  7.9000E-04  8.0000E-04  8.0000E-04  8.0000E-04
       7.9000E-04  7.8000E-04  7.6000E-04  7.5000E-04  7.4000E-04  7.2000E-04  7.1000E-04  7.1000E-04  7.0000E-04  7.0000E-04
       7.0000E-04  7.1000E-04  7.2000E-04  7.3000E-04  7.5000E-04  7.7000E-04  7.9000E-04  8.0000E-04  8.0000E-04  7.9000E-04
       7.9000E-04  7.9000E-04  7.9000E-04  7.9000E-04  7.8000E-04
  16   7.7000E-04  7.8000E-04  7.8000E-04  7.8000E-04  7.8000E-04  7.9000E-04  7.9000E-04  7.9000E-04  7.9000E-04  7.9000E-04
       7.8000E-04  7.7000E-04  7.6000E-04  7.4000E-04  7.3000E-04  7.2000E-04  7.1000E-04  7.0000E-04  6.9000E-04  6.9000E-04
       6.9000E-04  7.0000E-04  7.0000E-04  7.2000E-04  7.4000E-04  7.6000E-04  7.9000E-04  7.9000E-04  7.9000E-04  7.9000E-04
       7.9000E-04  7.9000E-04  7.8000E-04  7.8000E-04  7.8000E-04
  17   7.7000E-04  7.7000E-04  7.8000E-04  7.8000E-04  7.8000E-04  7.8000E-04  7.9000E-04  7.9000E-04  7.9000E-04  7.8000E-04
       7.7000E-04  7.6000E-04  7.5000E-04  7.3000E-04  7.2000E-04  7.1000E-04  7.0000E-04  6.9000E-04  6.8000E-04  6.8000E-04
       6.7000E-04  6.8000E-04  6.9000E-04  7.0000E-04  7.2000E-04  7.4000E-04  7.6000E-04  7.7000E-04  7.8000E-04  7.8000E-04
       7.8000E-04  7.8000E-04  7.8000E-04  7.8000E-04  7.8000E-04
  18   7.7000E-04  7.7000E-04  7.7000E-04  7.7000E-04  7.8000E-04  7.8000E-04  7.8000E-04  7.8000E-04  7.8000E-04  7.7000E-04
       7.6000E-04  7.5000E-04  7.4000E-04  7.2000E-04  7.1000E-04  7.0000E-04  6.9000E-04  6.8000E-04  6.7000E-04  6.6000E-04
       6.6000E-04  6.6000E-04  6.6000E-04  6.8000E-04  6.9000E-04  7.1000E-04  7.3000E-04  7.5000E-04  7.6000E-04  7.6000E-04
       7.7000E-04  7.7000E-04  7.7000E-04  7.7000E-04  7.7000E-04
  19   7.6000E-04  7.7000E-04  7.7000E-04  7.7000E-04  7.7000E-04  7.7000E-04  7.7000E-04  7.7000E-04  7.7000E-04  7.6000E-04
       7.5000E-04  7.4000E-04  7.3000E-04  7.1000E-04  7.0000E-04  6.9000E-04  6.7000E-04  6.6000E-04  6.5000E-04  6.4000E-04
       6.3000E-04  6.3000E-04  6.4000E-04  6.5000E-04  6.7000E-04  6.9000E-04  7.0000E-04  7.2000E-04  7.3000E-04  7.5000E-04
       7.5000E-04  7.6000E-04  7.7000E-04  7.7000E-04  7.6000E-04
  20   7.6000E-04  7.6000E-04  7.6000E-04  7.6000E-04  7.6000E-04  7.6000E-04  7.6000E-04  7.6000E-04  7.6000E-04  7.5000E-04
       7.4000E-04  7.3000E-04  7.2000E-04  7.0000E-04  6.9000E-04  6.8000E-04  6.6000E-04  6.5000E-04  6.4000E-04  6.2000E-04
       6.1000E-04  6.1000E-04  6.1000E-04  6.2000E-04  6.4000E-04  6.6000E-04  6.8000E-04  7.0000E-04  7.1000E-04  7.3000E-04
       7.4000E-04  7.5000E-04  7.6000E-04  7.6000E-04  7.6000E-04
  21   7.6000E-04  7.6000E-04  7.6000E-04  7.6000E-04  7.6000E-04  7.6000E-04  7.5000E-04  7.5000E-04  7.4000E-04  7.4000E-04
       7.3000E-04  7.2000E-04  7.1000E-04  6.9000E-04  6.8000E-04  6.7000E-04  6.5000E-04  6.4000E-04  6.2000E-04  6.1000E-04
       5.9000E-04  5.8000E-04  5.7000E-04  5.9000E-04  6.1000E-04  6.3000E-04  6.6000E-04  6.8000E-04  7.0000E-04  7.1000E-04
       7.2000E-04  7.3000E-04  7.4000E-04  7.4000E-04  7.5000E-04
  22   7.5000E-04  7.5000E-04  7.5000E-04  7.5000E-04  7.5000E-04  7.5000E-04  7.4000E-04  7.4000E-04  7.3000E-04  7.3000E-04
       7.2000E-04  7.1000E-04  7.0000E-04  6.8000E-04  6.7000E-04  6.6000E-04  6.4000E-04  6.3000E-04  6.1000E-04  6.0000E-04
       5.8000E-04  5.6000E-04  5.4000E-04  5.6000E-04  5.9000E-04  6.2000E-04  6.4000E-04  6.6000E-04  6.8000E-04  7.0000E-04
       7.1000E-04  7.2000E-04  7.3000E-04  7.3000E-04  7.4000E-04
  23   7.5000E-04  7.5000E-04  7.5000E-04  7.4000E-04  7.4000E-04  7.4000E-04  7.4000E-04  7.3000E-04  7.2000E-04  7.2000E-04
       7.1000E-04  7.0000E-04  6.9000E-04  6.7000E-04  6.6000E-04  6.5000E-04  6.3000E-04  6.2000E-04  6.0000E-04  5.9000E-04
       5.7000E-04  5.6000E-04  5.5000E-04  5.6000E-04  5.8000E-04  6.1000E-04  6.3000E-04  6.5000E-04  6.7000E-04  6.8000E-04
       6.9000E-04  7.1000E-04  7.1000E-04  7.2000E-04  7.3000E-04
  24   7.4000E-04  7.4000E-04  7.4000E-04  7.4000E-04  7.4000E-04  7.3000E-04  7.3000E-04  7.2000E-04  7.2000E-04  7.1000E-04
       7.0000E-04  6.9000E-04  6.8000E-04  6.7000E-04  6.6000E-04  6.4000E-04  6.3000E-04  6.1000E-04  6.0000E-04  5.9000E-04
       5.7000E-04  5.6000E-04  5.6000E-04  5.7000E-04  5.8000E-04  6.0000E-04  6.2000E-04  6.4000E-04  6.6000E-04  6.7000E-04
       6.8000E-04  6.9000E-04  7.0000E-04  7.1000E-04  7.2000E-04
  25   7.4000E-04  7.4000E-04  7.3000E-04  7.3000E-04  7.3000E-04  7.2000E-04  7.2000E-04  7.1000E-04  7.1000E-04  7.0000E-04
       6.9000E-04  6.8000E-04  6.7000E-04  6.6000E-04  6.5000E-04  6.4000E-04  6.2000E-04  6.1000E-04  6.0000E-04  5.9000E-04
       5.8000E-04  5.7000E-04  5.7000E-04  5.8000E-04  5.9000E-04  6.0000E-04  6.2000E-04  6.3000E-04  6.5000E-04  6.6000E-04
       6.7000E-04  6.8000E-04  6.9000E-04  7.0000E-04  7.1000E-04
  26   7.3000E-04  7.3000E-04  7.3000E-04  7.3000E-04  7.2000E-04  7.2000E-04  7.1000E-04  7.1000E-04  7.0000E-04  6.9000E-04
       6.9000E-04  6.8000E-04  6.7000E-04  6.6000E-04  6.5000E-04  6.3000E-04  6.2000E-04  6.1000E-04  6.0000E-04  5.9000E-04
       5.8000E-04  5.8000E-04  5.8000E-04  5.8000E-04  5.9000E-04  6.0000E-04  6.1000E-04  6.3000E-04  6.4000E-04  6.5000E-04
       6.7000E-04  6.8000E-04  6.9000E-04  6.9000E-04  7.0000E-04
  27   7.3000E-04  7.3000E-04  7.2000E-04  7.2000E-04  7.2000E-04  7.1000E-04  7.1000E-04  7.0000E-04  7.0000E-04  6.9000E-04
       6.8000E-04  6.7000E-04  6.6000E-04  6.5000E-04  6.4000E-04  6.3000E-04  6.2000E-04  6.1000E-04  6.0000E-04  5.9000E-04
       5.9000E-04  5.8000E-04  5.8000E-04  5.9000E-04  5.9000E-04  6.0000E-04  6.1000E-04  6.3000E-04  6.4000E-04  6.5000E-04
       6.6000E-04  6.7000E-04  6.8000E-04  6.9000E-04  6.9000E-04
  28   7.2000E-04  7.2000E-04  7.2000E-04  7.1000E-04  7.1000E-04  7.1000E-04  7.0000E-04  7.0000E-04  6.9000E-04  6.8000E-04
       6.8000E-04  6.7000E-04  6.6000E-04  6.5000E-04  6.4000E-04  6.3000E-04  6.2000E-04  6.1000E-04  6.1000E-04  6.0000E-04
       5.9000E-04  5.9000E-04  5.9000E-04  5.9000E-04  6.0000E-04  6.1000E-04  6.2000E-04  6.3000E-04  6.4000E-04  6.5000E-04
       6.6000E-04  6.6000E-04  6.7000E-04  6.8000E-04  6.9000E-04
  29   7.2000E-04  7.2000E-04  7.1000E-04  7.1000E-04  7.1000E-04  7.0000E-04  7.0000E-04  6.9000E-04  6.9000E-04  6.8000E-04
       6.7000E-04  6.6000E-04  6.6000E-04  6.5000E-04  6.4000E-04  6.3000E-04  6.2000E-04  6.1000E-04  6.1000E-04  6.0000E-04
       6.0000E-04  6.0000E-04  6.0000E-04  6.0000E-04  6.0000E-04  6.1000E-04  6.2000E-04  6.3000E-04  6.3000E-04  6.4000E-04
       6.5000E-04  6.6000E-04  6.7000E-04  6.7000E-04  6.8000E-04
  30   7.1000E-04  7.1000E-04  7.1000E-04  7.1000E-04  7.0000E-04  7.0000E-04  6.9000E-04  6.9000E-04  6.8000E-04  6.7000E-04
       6.7000E-04  6.6000E-04  6.5000E-04  6.5000E-04  6.4000E-04  6.3000E-04  6.2000E-04  6.2000E-04  6.1000E-04  6.1000E-04
       6.0000E-04  6.0000E-04  6.0000E-04  6.0000E-04  6.1000E-04  6.1000E-04  6.2000E-04  6.3000E-04  6.3000E-04  6.4000E-04
       6.5000E-04  6.6000E-04  6.6000E-04  6.7000E-04  6.8000E-04
  31   7.1000E-04  7.1000E-04  7.0000E-04  7.0000E-04  7.0000E-04  6.9000E-04  6.9000E-04  6.8000E-04  6.8000E-04  6.7000E-04
       6.7000E-04  6.6000E-04  6.5000E-04  6.4000E-04  6.4000E-04  6.3000E-04  6.2000E-04  6.2000E-04  6.1000E-04  6.1000E-04
       6.1000E-04  6.1000E-04  6.1000E-04  6.1000E-04  6.1000E-04  6.2000E-04  6.2000E-04  6.3000E-04  6.3000E-04  6.4000E-04
       6.5000E-04  6.5000E-04  6.6000E-04  6.7000E-04  6.7000E-04
  32   7.1000E-04  7.0000E-04  7.0000E-04  7.0000E-04  6.9000E-04  6.9000E-04  6.8000E-04  6.8000E-04  6.7000E-04  6.7000E-04
       6.6000E-04  6.6000E-04  6.5000E-04  6.4000E-04  6.4000E-04  6.3000E-04  6.3000E-04  6.2000E-04  6.2000E-04  6.1000E-04
       6.1000E-04  6.1000E-04  6.1000E-04  6.1000E-04  6.1000E-04  6.2000E-04  6.2000E-04  6.3000E-04  6.3000E-04  6.4000E-04
       6.5000E-04  6.5000E-04  6.6000E-04  6.6000E-04  6.7000E-04
  33   7.0000E-04  7.0000E-04  7.0000E-04  6.9000E-04  6.9000E-04  6.9000E-04  6.8000E-04  6.8000E-04  6.7000E-04  6.7000E-04
       6.6000E-04  6.6000E-04  6.5000E-04  6.4000E-04  6.4000E-04  6.3000E-04  6.3000E-04  6.2000E-04  6.2000E-04  6.2000E-04
       6.1000E-04  6.1000E-04  6.1000E-04  6.1000E-04  6.2000E-04  6.2000E-04  6.2000E-04  6.3000E-04  6.3000E-04  6.4000E-04
       6.5000E-04  6.5000E-04  6.6000E-04  6.6000E-04  6.7000E-04
  34   7.0000E-04  7.0000E-04  6.9000E-04  6.9000E-04  6.9000E-04  6.8000E-04  6.8000E-04  6.7000E-04  6.7000E-04  6.6000E-04
       6.6000E-04  6.5000E-04  6.5000E-04  6.4000E-04  6.4000E-04  6.3000E-04  6.3000E-04  6.3000E-04  6.2000E-04  6.2000E-04
       6.2000E-04  6.2000E-04  6.2000E-04  6.2000E-04  6.2000E-04  6.2000E-04  6.3000E-04  6.3000E-04  6.3000E-04  6.4000E-04
       6.4000E-04  6.5000E-04  6.6000E-04  6.6000E-04  6.6000E-04
  35   7.0000E-04  6.9000E-04  6.9000E-04  6.9000E-04  6.8000E-04  6.8000E-04  6.8000E-04  6.7000E-04  6.7000E-04  6.6000E-04
       6.6000E-04  6.5000E-04  6.5000E-04  6.4000E-04  6.4000E-04  6.4000E-04  6.3000E-04  6.3000E-04  6.2000E-04  6.2000E-04
       6.2000E-04  6.2000E-04  6.2000E-04  6.2000E-04  6.2000E-04  6.3000E-04  6.3000E-04  6.3000E-04  6.4000E-04  6.4000E-04
       6.4000E-04  6.5000E-04  6.5000E-04  6.6000E-04  6.6000E-04
  36   6.9000E-04  6.9000E-04  6.9000E-04  6.9000E-04  6.8000E-04  6.8000E-04  6.7000E-04  6.7000E-04  6.7000E-04  6.6000E-04
       6.6000E-04  6.5000E-04  6.5000E-04  6.4000E-04  6.4000E-04  6.4000E-04  6.3000E-04  6.3000E-04  6.3000E-04  6.2000E-04
       6.2000E-04  6.2000E-04  6.2000E-04  6.2000E-04  6.3000E-04  6.3000E-04  6.3000E-04  6.3000E-04  6.4000E-04  6.4000E-04
       6.4000E-04  6.5000E-04  6.5000E-04  6.6000E-04  6.6000E-04
  37   6.9000E-04  6.9000E-04  6.9000E-04  6.8000E-04  6.8000E-04  6.8000E-04  6.7000E-04  6.7000E-04  6.6000E-04  6.6000E-04
       6.6000E-04  6.5000E-04  6.5000E-04  6.4000E-04  6.4000E-04  6.4000E-04  6.3000E-04  6.3000E-04  6.3000E-04  6.3000E-04
       6.3000E-04  6.3000E-04  6.3000E-04  6.3000E-04  6.3000E-04  6.3000E-04  6.3000E-04  6.3000E-04  6.4000E-04  6.4000E-04
       6.4000E-04  6.5000E-04  6.5000E-04  6.6000E-04  6.6000E-04
  38   6.9000E-04  6.9000E-04  6.8000E-04  6.8000E-04  6.8000E-04  6.7000E-04  6.7000E-04  6.7000E-04  6.6000E-04  6.6000E-04
       6.6000E-04  6.5000E-04  6.5000E-04  6.5000E-04  6.4000E-04  6.4000E-04  6.4000E-04  6.3000E-04  6.3000E-04  6.3000E-04
       6.3000E-04  6.3000E-04  6.3000E-04  6.3000E-04  6.3000E-04  6.3000E-04  6.3000E-04  6.4000E-04  6.4000E-04  6.4000E-04
       6.5000E-04  6.5000E-04  6.5000E-04  6.6000E-04  6.6000E-04
  39   6.9000E-04  6.9000E-04  6.8000E-04  6.8000E-04  6.8000E-04  6.7000E-04  6.7000E-04  6.7000E-04  6.6000E-04  6.6000E-04
       6.6000E-04  6.5000E-04  6.5000E-04  6.5000E-04  6.4000E-04  6.4000E-04  6.4000E-04  6.3000E-04  6.3000E-04  6.3000E-04
       6.3000E-04  6.3000E-04  6.3000E-04  6.3000E-04  6.3000E-04  6.3000E-04  6.3000E-04  6.4000E-04  6.4000E-04  6.4000E-04
       6.5000E-04  6.5000E-04  6.5000E-04  6.6000E-04  6.6000E-04
  40   6.9000E-04  6.8000E-04  6.8000E-04  6.8000E-04  6.8000E-04  6.7000E-04  6.7000E-04  6.7000E-04  6.6000E-04  6.6000E-04
       6.6000E-04  6.5000E-04  6.5000E-04  6.5000E-04  6.4000E-04  6.4000E-04  6.4000E-04  6.4000E-04  6.3000E-04  6.3000E-04
       6.3000E-04  6.3000E-04  6.3000E-04  6.3000E-04  6.3000E-04  6.3000E-04  6.4000E-04  6.4000E-04  6.4000E-04  6.4000E-04
       6.5000E-04  6.5000E-04  6.5000E-04  6.5000E-04  6.6000E-04
  41   6.8000E-04  6.8000E-04  6.8000E-04  6.8000E-04  6.7000E-04  6.7000E-04  6.7000E-04  6.6000E-04  6.6000E-04  6.6000E-04
       6.6000E-04  6.5000E-04  6.5000E-04  6.5000E-04  6.4000E-04  6.4000E-04  6.4000E-04  6.4000E-04  6.4000E-04  6.4000E-04
       6.3000E-04  6.3000E-04  6.3000E-04  6.3000E-04  6.4000E-04  6.4000E-04  6.4000E-04  6.4000E-04  6.4000E-04  6.4000E-04
       6.5000E-04  6.5000E-04  6.5000E-04  6.5000E-04  6.6000E-04
  42   6.8000E-04  6.8000E-04  6.8000E-04  6.8000E-04  6.7000E-04  6.7000E-04  6.7000E-04  6.6000E-04  6.6000E-04  6.6000E-04
       6.6000E-04  6.5000E-04  6.5000E-04  6.5000E-04  6.5000E-04  6.4000E-04  6.4000E-04  6.4000E-04  6.4000E-04  6.4000E-04
       6.4000E-04  6.4000E-04  6.4000E-04  6.4000E-04  6.4000E-04  6.4000E-04  6.4000E-04  6.4000E-04  6.4000E-04  6.4000E-04
       6.5000E-04  6.5000E-04  6.5000E-04  6.5000E-04  6.6000E-04
  43   6.8000E-04  6.8000E-04  6.8000E-04  6.7000E-04  6.7000E-04  6.7000E-04  6.7000E-04  6.6000E-04  6.6000E-04  6.6000E-04
       6.6000E-04  6.5000E-04  6.5000E-04  6.5000E-04  6.5000E-04  6.4000E-04  6.4000E-04  6.4000E-04  6.4000E-04  6.4000E-04
       6.4000E-04  6.4000E-04  6.4000E-04  6.4000E-04  6.4000E-04  6.4000E-04  6.4000E-04  6.4000E-04  6.4000E-04  6.5000E-04
       6.5000E-04  6.5000E-04  6.5000E-04  6.5000E-04  6.6000E-04
  44   6.8000E-04  6.8000E-04  6.8000E-04  6.7000E-04  6.7000E-04  6.7000E-04  6.7000E-04  6.6000E-04  6.6000E-04  6.6000E-04
       6.6000E-04  6.5000E-04  6.5000E-04  6.5000E-04  6.5000E-04  6.5000E-04  6.4000E-04  6.4000E-04  6.4000E-04  6.4000E-04
       6.4000E-04  6.4000E-04  6.4000E-04  6.4000E-04  6.4000E-04  6.4000E-04  6.4000E-04  6.4000E-04  6.4000E-04  6.5000E-04
       6.5000E-04  6.5000E-04  6.5000E-04  6.5000E-04  6.6000E-04
  45   6.8000E-04  6.8000E-04  6.7000E-04  6.7000E-04  6.7000E-04  6.7000E-04  6.7000E-04  6.6000E-04  6.6000E-04  6.6000E-04
       6.6000E-04  6.5000E-04  6.5000E-04  6.5000E-04  6.5000E-04  6.5000E-04  6.4000E-04  6.4000E-04  6.4000E-04  6.4000E-04
       6.4000E-04  6.4000E-04  6.4000E-04  6.4000E-04  6.4000E-04  6.4000E-04  6.4000E-04  6.4000E-04  6.5000E-04  6.5000E-04
       6.5000E-04  6.5000E-04  6.5000E-04  6.5000E-04  6.6000E-04

   HORIZ. ANI. (COL./ROW) =   1.00000     FOR LAYER   1



                VERTICAL HYD. COND. FOR LAYER   1
 READING ON UNIT   14 WITH FORMAT: (FREE)              

            1           2           3           4           5           6           7           8           9          10
           11          12          13          14          15          16          17          18          19          20
           21          22          23          24          25          26          27          28          29          30
           31          32          33          34          35
 ........................................................................................................................
   1   1.5000E-04  1.5000E-04  1.5000E-04  1.5000E-04  1.4800E-04  1.4800E-04  1.4800E-04  1.4600E-04  1.4600E-04  1.4600E-04
       1.4400E-04  1.4400E-04  1.4200E-04  1.4200E-04  1.4200E-04  1.4000E-04  1.4000E-04  1.4000E-04  1.4000E-04  1.4000E-04
       1.4200E-04  1.4200E-04  1.4400E-04  1.4400E-04  1.4600E-04   1.000       1.000       1.000       1.000       1.000    
        1.000       1.000       1.000       1.000       1.000    
   2   1.5000E-04  1.5000E-04  1.5000E-04  1.5000E-04  1.4800E-04  1.4800E-04  1.4800E-04   1.000       1.000       1.000    
        1.000       1.000       1.000       1.000       1.000       1.000       1.000       1.000       1.000       1.000    
        1.000       1.000       1.000       1.000       1.000       1.000      1.4800E-04  1.4800E-04  1.5000E-04  1.5000E-04
       1.5000E-04  1.5200E-04  1.5200E-04  1.5200E-04  1.5200E-04
   3    1.000       1.000       1.000       1.000       1.000       1.000       1.000       1.000      1.4600E-04  1.4600E-04
       1.4400E-04  1.4400E-04  1.4200E-04  1.4200E-04  1.4000E-04  1.4000E-04  1.3800E-04  1.3800E-04  1.3800E-04  1.4000E-04
       1.4000E-04  1.4200E-04  1.4200E-04  1.4400E-04  1.4600E-04  1.4600E-04  1.4800E-04  1.4800E-04  1.5000E-04  1.5000E-04
       1.5200E-04  1.5200E-04  1.5200E-04  1.5200E-04  1.5400E-04
   4   1.5200E-04  1.5000E-04  1.5000E-04  1.5000E-04  1.5000E-04  1.5000E-04  1.4800E-04  1.4800E-04  1.4800E-04  1.4600E-04
       1.4600E-04  1.4400E-04  1.4200E-04  1.4200E-04  1.4000E-04  1.3800E-04  1.3800E-04  1.3800E-04  1.3800E-04  1.3800E-04
       1.4000E-04  1.4200E-04  1.4200E-04  1.4400E-04  1.4600E-04  1.4600E-04  1.4800E-04  1.5000E-04  1.5000E-04  1.5000E-04
       1.5200E-04  1.5200E-04  1.5200E-04  1.5400E-04  1.5400E-04
   5   1.5200E-04  1.5200E-04  1.5000E-04  1.5000E-04  1.5000E-04  1.5000E-04  1.5000E-04  1.4800E-04  1.4800E-04  1.4600E-04
       1.4600E-04  1.4400E-04  1.4400E-04  1.4200E-04  1.4000E-04  1.3800E-04  1.3600E-04  1.3600E-04  1.3600E-04  1.3800E-04
       1.4000E-04  1.4200E-04  1.4200E-04  1.4400E-04  1.4600E-04  1.4800E-04  1.4800E-04  1.5000E-04  1.5000E-04  1.5200E-04
       1.5200E-04  1.5200E-04  1.5400E-04  1.5400E-04  1.5400E-04
   6   1.5200E-04  1.5200E-04  1.5200E-04  1.5200E-04  1.5000E-04  1.5000E-04  1.5000E-04  1.5000E-04  1.4800E-04  1.4800E-04
       1.4600E-04  1.4600E-04  1.4400E-04  1.4200E-04  1.4000E-04  1.3800E-04  1.3600E-04  1.3600E-04  1.3600E-04  1.3800E-04
       1.4000E-04  1.4200E-04  1.4400E-04  1.4400E-04  1.4600E-04  1.4800E-04  1.4800E-04  1.5000E-04  1.5200E-04  1.5200E-04
       1.5200E-04  1.5400E-04  1.5400E-04  1.5400E-04  1.5400E-04
   7   1.5200E-04  1.5200E-04  1.5200E-04  1.5200E-04  1.5200E-04  1.5200E-04  1.5000E-04  1.5000E-04  1.5000E-04  1.4800E-04
       1.4800E-04  1.4600E-04  1.4400E-04  1.4200E-04  1.4000E-04  1.3800E-04  1.3600E-04  1.3400E-04  1.3600E-04  1.3800E-04
       1.4000E-04  1.4200E-04  1.4400E-04  1.4600E-04  1.4600E-04  1.4800E-04  1.5000E-04  1.5000E-04  1.5200E-04  1.5200E-04
       1.5400E-04  1.5400E-04  1.5400E-04  1.5400E-04  1.5600E-04
   8   1.5200E-04  1.5200E-04  1.5200E-04  1.5200E-04  1.5200E-04  1.5200E-04  1.5200E-04  1.5200E-04  1.5200E-04  1.5000E-04
       1.5000E-04  1.4800E-04  1.4600E-04  1.4400E-04  1.4200E-04  1.4000E-04  1.3800E-04  1.3800E-04  1.3800E-04  1.4000E-04
       1.4000E-04  1.4200E-04  1.4400E-04  1.4600E-04  1.4800E-04  1.5000E-04  1.5000E-04  1.5200E-04  1.5200E-04  1.5400E-04
       1.5400E-04  1.5400E-04  1.5600E-04  1.5600E-04  1.5600E-04
   9   1.5400E-04  1.5400E-04  1.5400E-04  1.5400E-04  1.5400E-04  1.5400E-04  1.5400E-04  1.5400E-04  1.5400E-04  1.5200E-04
       1.5200E-04  1.5000E-04  1.4800E-04  1.4600E-04  1.4400E-04  1.4200E-04  1.4000E-04  1.4000E-04  1.4000E-04  1.4000E-04
       1.4200E-04  1.4400E-04  1.4600E-04  1.4600E-04  1.4800E-04  1.5000E-04  1.5200E-04  1.5400E-04  1.5400E-04  1.5400E-04
       1.5600E-04  1.5600E-04  1.5600E-04  1.5600E-04  1.5600E-04
  10   1.5400E-04  1.5400E-04  1.5400E-04  1.5400E-04  1.5400E-04  1.5400E-04  1.5400E-04  1.5400E-04  1.5600E-04  1.5400E-04
       1.5400E-04  1.5200E-04  1.5000E-04  1.4800E-04  1.4600E-04  1.4400E-04  1.4200E-04  1.4200E-04  1.4200E-04  1.4200E-04
       1.4200E-04  1.4400E-04  1.4600E-04  1.4800E-04  1.5000E-04  1.5200E-04  1.5200E-04  1.5400E-04  1.5600E-04  1.5600E-04
       1.5600E-04  1.5600E-04  1.5600E-04  1.5600E-04  1.5600E-04
  11   1.5400E-04  1.5400E-04  1.5400E-04  1.5600E-04  1.5600E-04  1.5600E-04  1.5600E-04  1.5600E-04  1.5800E-04  1.5800E-04
       1.5600E-04  1.5400E-04  1.5200E-04  1.5000E-04  1.4800E-04  1.4600E-04  1.4400E-04  1.4200E-04  1.4200E-04  1.4200E-04
       1.4400E-04  1.4400E-04  1.4600E-04  1.4800E-04  1.5000E-04  1.5200E-04  1.5400E-04  1.5600E-04  1.5600E-04  1.5600E-04
       1.5800E-04  1.5800E-04  1.5800E-04  1.5800E-04  1.5800E-04
  12   1.5400E-04  1.5600E-04  1.5600E-04  1.5600E-04  1.5600E-04  1.5600E-04  1.5800E-04  1.5800E-04  1.6000E-04  1.6000E-04
       1.5800E-04  1.5600E-04  1.5400E-04  1.5000E-04  1.4800E-04  1.4600E-04  1.4400E-04  1.4400E-04  1.4200E-04  1.4200E-04
       1.4400E-04  1.4400E-04  1.4600E-04  1.4800E-04  1.5000E-04  1.5400E-04  1.5600E-04  1.5600E-04  1.5800E-04  1.5800E-04
       1.5800E-04  1.5800E-04  1.5800E-04  1.5800E-04  1.5800E-04
  13   1.5400E-04  1.5600E-04  1.5600E-04  1.5600E-04  1.5800E-04  1.5800E-04  1.5800E-04  1.6000E-04  1.6000E-04  1.6200E-04
       1.6200E-04  1.5800E-04  1.5400E-04  1.5200E-04  1.4800E-04  1.4600E-04  1.4400E-04  1.4400E-04  1.4200E-04  1.4200E-04
       1.4400E-04  1.4400E-04  1.4600E-04  1.4800E-04  1.5200E-04  1.5400E-04  1.5600E-04  1.5800E-04  1.5800E-04  1.5800E-04
       1.5800E-04  1.5800E-04  1.5800E-04  1.5800E-04  1.5800E-04
  14   1.5400E-04  1.5600E-04  1.5600E-04  1.5600E-04  1.5800E-04  1.5800E-04  1.5800E-04  1.6000E-04  1.6000E-04  1.6000E-04
       1.6000E-04  1.5800E-04  1.5400E-04  1.5200E-04  1.4800E-04  1.4600E-04  1.4400E-04  1.4200E-04  1.4200E-04  1.4200E-04
       1.4200E-04  1.4400E-04  1.4600E-04  1.4800E-04  1.5200E-04  1.5400E-04  1.5800E-04  1.5800E-04  1.6000E-04  1.5800E-04
       1.5800E-04  1.5800E-04  1.5800E-04  1.5800E-04  1.5800E-04
  15   1.5400E-04  1.5600E-04  1.5600E-04  1.5600E-04  1.5800E-04  1.5800E-04  1.5800E-04  1.6000E-04  1.6000E-04  1.6000E-04
       1.5800E-04  1.5600E-04  1.5200E-04  1.5000E-04  1.4800E-04  1.4400E-04  1.4200E-04  1.4200E-04  1.4000E-04  1.4000E-04
       1.4000E-04  1.4200E-04  1.4400E-04  1.4600E-04  1.5000E-04  1.5400E-04  1.5800E-04  1.6000E-04  1.6000E-04  1.5800E-04
       1.5800E-04  1.5800E-04  1.5800E-04  1.5800E-04  1.5600E-04
  16   1.5400E-04  1.5600E-04  1.5600E-04  1.5600E-04  1.5600E-04  1.5800E-04  1.5800E-04  1.5800E-04  1.5800E-04  1.5800E-04
       1.5600E-04  1.5400E-04  1.5200E-04  1.4800E-04  1.4600E-04  1.4400E-04  1.4200E-04  1.4000E-04  1.3800E-04  1.3800E-04
       1.3800E-04  1.4000E-04  1.4000E-04  1.4400E-04  1.4800E-04  1.5200E-04  1.5800E-04  1.5800E-04  1.5800E-04  1.5800E-04
       1.5800E-04  1.5800E-04  1.5600E-04  1.5600E-04  1.5600E-04
  17   1.5400E-04  1.5400E-04  1.5600E-04  1.5600E-04  1.5600E-04  1.5600E-04  1.5800E-04  1.5800E-04  1.5800E-04  1.5600E-04
       1.5400E-04  1.5200E-04  1.5000E-04  1.4600E-04  1.4400E-04  1.4200E-04  1.4000E-04  1.3800E-04  1.3600E-04  1.3600E-04
       1.3400E-04  1.3600E-04  1.3800E-04  1.4000E-04  1.4400E-04  1.4800E-04  1.5200E-04  1.5400E-04  1.5600E-04  1.5600E-04
       1.5600E-04  1.5600E-04  1.5600E-04  1.5600E-04  1.5600E-04
  18   1.5400E-04  1.5400E-04  1.5400E-04  1.5400E-04  1.5600E-04  1.5600E-04  1.5600E-04  1.5600E-04  1.5600E-04  1.5400E-04
       1.5200E-04  1.5000E-04  1.4800E-04  1.4400E-04  1.4200E-04  1.4000E-04  1.3800E-04  1.3600E-04  1.3400E-04  1.3200E-04
       1.3200E-04  1.3200E-04  1.3200E-04  1.3600E-04  1.3800E-04  1.4200E-04  1.4600E-04  1.5000E-04  1.5200E-04  1.5200E-04
       1.5400E-04  1.5400E-04  1.5400E-04  1.5400E-04  1.5400E-04
  19   1.5200E-04  1.5400E-04  1.5400E-04  1.5400E-04  1.5400E-04  1.5400E-04  1.5400E-04  1.5400E-04  1.5400E-04  1.5200E-04
       1.5000E-04  1.4800E-04  1.4600E-04  1.4200E-04  1.4000E-04  1.3800E-04  1.3400E-04  1.3200E-04  1.3000E-04  1.2800E-04
       1.2600E-04  1.2600E-04  1.2800E-04  1.3000E-04  1.3400E-04  1.3800E-04  1.4000E-04  1.4400E-04  1.4600E-04  1.5000E-04
       1.5000E-04  1.5200E-04  1.5400E-04  1.5400E-04  1.5200E-04
  20   1.5200E-04  1.5200E-04  1.5200E-04  1.5200E-04  1.5200E-04  1.5200E-04  1.5200E-04  1.5200E-04  1.5200E-04  1.5000E-04
       1.4800E-04  1.4600E-04  1.4400E-04  1.4000E-04  1.3800E-04  1.3600E-04  1.3200E-04  1.3000E-04  1.2800E-04  1.2400E-04
       1.2200E-04  1.2200E-04  1.2200E-04  1.2400E-04  1.2800E-04  1.3200E-04  1.3600E-04  1.4000E-04  1.4200E-04  1.4600E-04
       1.4800E-04  1.5000E-04  1.5200E-04  1.5200E-04  1.5200E-04
  21   1.5200E-04  1.5200E-04  1.5200E-04  1.5200E-04  1.5200E-04  1.5200E-04  1.5000E-04  1.5000E-04  1.4800E-04  1.4800E-04
       1.4600E-04  1.4400E-04  1.4200E-04  1.3800E-04  1.3600E-04  1.3400E-04  1.3000E-04  1.2800E-04  1.2400E-04  1.2200E-04
       1.1800E-04  1.1600E-04  1.1400E-04  1.1800E-04  1.2200E-04  1.2600E-04  1.3200E-04  1.3600E-04  1.4000E-04  1.4200E-04
       1.4400E-04  1.4600E-04  1.4800E-04  1.4800E-04  1.5000E-04
  22   1.5000E-04  1.5000E-04  1.5000E-04  1.5000E-04  1.5000E-04  1.5000E-04  1.4800E-04  1.4800E-04  1.4600E-04  1.4600E-04
       1.4400E-04  1.4200E-04  1.4000E-04  1.3600E-04  1.3400E-04  1.3200E-04  1.2800E-04  1.2600E-04  1.2200E-04  1.2000E-04
       1.1600E-04  1.1200E-04  1.0800E-04  1.1200E-04  1.1800E-04  1.2400E-04  1.2800E-04  1.3200E-04  1.3600E-04  1.4000E-04
       1.4200E-04  1.4400E-04  1.4600E-04  1.4600E-04  1.4800E-04
  23   1.5000E-04  1.5000E-04  1.5000E-04  1.4800E-04  1.4800E-04  1.4800E-04  1.4800E-04  1.4600E-04  1.4400E-04  1.4400E-04
       1.4200E-04  1.4000E-04  1.3800E-04  1.3400E-04  1.3200E-04  1.3000E-04  1.2600E-04  1.2400E-04  1.2000E-04  1.1800E-04
       1.1400E-04  1.1200E-04  1.1000E-04  1.1200E-04  1.1600E-04  1.2200E-04  1.2600E-04  1.3000E-04  1.3400E-04  1.3600E-04
       1.3800E-04  1.4200E-04  1.4200E-04  1.4400E-04  1.4600E-04
  24   1.4800E-04  1.4800E-04  1.4800E-04  1.4800E-04  1.4800E-04  1.4600E-04  1.4600E-04  1.4400E-04  1.4400E-04  1.4200E-04
       1.4000E-04  1.3800E-04  1.3600E-04  1.3400E-04  1.3200E-04  1.2800E-04  1.2600E-04  1.2200E-04  1.2000E-04  1.1800E-04
       1.1400E-04  1.1200E-04  1.1200E-04  1.1400E-04  1.1600E-04  1.2000E-04  1.2400E-04  1.2800E-04  1.3200E-04  1.3400E-04
       1.3600E-04  1.3800E-04  1.4000E-04  1.4200E-04  1.4400E-04
  25   1.4800E-04  1.4800E-04  1.4600E-04  1.4600E-04  1.4600E-04  1.4400E-04  1.4400E-04  1.4200E-04  1.4200E-04  1.4000E-04
       1.3800E-04  1.3600E-04  1.3400E-04  1.3200E-04  1.3000E-04  1.2800E-04  1.2400E-04  1.2200E-04  1.2000E-04  1.1800E-04
       1.1600E-04  1.1400E-04  1.1400E-04  1.1600E-04  1.1800E-04  1.2000E-04  1.2400E-04  1.2600E-04  1.3000E-04  1.3200E-04
       1.3400E-04  1.3600E-04  1.3800E-04  1.4000E-04  1.4200E-04
  26   1.4600E-04  1.4600E-04  1.4600E-04  1.4600E-04  1.4400E-04  1.4400E-04  1.4200E-04  1.4200E-04  1.4000E-04  1.3800E-04
       1.3800E-04  1.3600E-04  1.3400E-04  1.3200E-04  1.3000E-04  1.2600E-04  1.2400E-04  1.2200E-04  1.2000E-04  1.1800E-04
       1.1600E-04  1.1600E-04  1.1600E-04  1.1600E-04  1.1800E-04  1.2000E-04  1.2200E-04  1.2600E-04  1.2800E-04  1.3000E-04
       1.3400E-04  1.3600E-04  1.3800E-04  1.3800E-04  1.4000E-04
  27   1.4600E-04  1.4600E-04  1.4400E-04  1.4400E-04  1.4400E-04  1.4200E-04  1.4200E-04  1.4000E-04  1.4000E-04  1.3800E-04
       1.3600E-04  1.3400E-04  1.3200E-04  1.3000E-04  1.2800E-04  1.2600E-04  1.2400E-04  1.2200E-04  1.2000E-04  1.1800E-04
       1.1800E-04  1.1600E-04  1.1600E-04  1.1800E-04  1.1800E-04  1.2000E-04  1.2200E-04  1.2600E-04  1.2800E-04  1.3000E-04
       1.3200E-04  1.3400E-04  1.3600E-04  1.3800E-04  1.3800E-04
  28   1.4400E-04  1.4400E-04  1.4400E-04  1.4200E-04  1.4200E-04  1.4200E-04  1.4000E-04  1.4000E-04  1.3800E-04  1.3600E-04
       1.3600E-04  1.3400E-04  1.3200E-04  1.3000E-04  1.2800E-04  1.2600E-04  1.2400E-04  1.2200E-04  1.2200E-04  1.2000E-04
       1.1800E-04  1.1800E-04  1.1800E-04  1.1800E-04  1.2000E-04  1.2200E-04  1.2400E-04  1.2600E-04  1.2800E-04  1.3000E-04
       1.3200E-04  1.3200E-04  1.3400E-04  1.3600E-04  1.3800E-04
  29   1.4400E-04  1.4400E-04  1.4200E-04  1.4200E-04  1.4200E-04  1.4000E-04  1.4000E-04  1.3800E-04  1.3800E-04  1.3600E-04
       1.3400E-04  1.3200E-04  1.3200E-04  1.3000E-04  1.2800E-04  1.2600E-04  1.2400E-04  1.2200E-04  1.2200E-04  1.2000E-04
       1.2000E-04  1.2000E-04  1.2000E-04  1.2000E-04  1.2000E-04  1.2200E-04  1.2400E-04  1.2600E-04  1.2600E-04  1.2800E-04
       1.3000E-04  1.3200E-04  1.3400E-04  1.3400E-04  1.3600E-04
  30   1.4200E-04  1.4200E-04  1.4200E-04  1.4200E-04  1.4000E-04  1.4000E-04  1.3800E-04  1.3800E-04  1.3600E-04  1.3400E-04
       1.3400E-04  1.3200E-04  1.3000E-04  1.3000E-04  1.2800E-04  1.2600E-04  1.2400E-04  1.2400E-04  1.2200E-04  1.2200E-04
       1.2000E-04  1.2000E-04  1.2000E-04  1.2000E-04  1.2200E-04  1.2200E-04  1.2400E-04  1.2600E-04  1.2600E-04  1.2800E-04
       1.3000E-04  1.3200E-04  1.3200E-04  1.3400E-04  1.3600E-04
  31   1.4200E-04  1.4200E-04  1.4000E-04  1.4000E-04  1.4000E-04  1.3800E-04  1.3800E-04  1.3600E-04  1.3600E-04  1.3400E-04
       1.3400E-04  1.3200E-04  1.3000E-04  1.2800E-04  1.2800E-04  1.2600E-04  1.2400E-04  1.2400E-04  1.2200E-04  1.2200E-04
       1.2200E-04  1.2200E-04  1.2200E-04  1.2200E-04  1.2200E-04  1.2400E-04  1.2400E-04  1.2600E-04  1.2600E-04  1.2800E-04
       1.3000E-04  1.3000E-04  1.3200E-04  1.3400E-04  1.3400E-04
  32   1.4200E-04  1.4000E-04  1.4000E-04  1.4000E-04  1.3800E-04  1.3800E-04  1.3600E-04  1.3600E-04  1.3400E-04  1.3400E-04
       1.3200E-04  1.3200E-04  1.3000E-04  1.2800E-04  1.2800E-04  1.2600E-04  1.2600E-04  1.2400E-04  1.2400E-04  1.2200E-04
       1.2200E-04  1.2200E-04  1.2200E-04  1.2200E-04  1.2200E-04  1.2400E-04  1.2400E-04  1.2600E-04  1.2600E-04  1.2800E-04
       1.3000E-04  1.3000E-04  1.3200E-04  1.3200E-04  1.3400E-04
  33   1.4000E-04  1.4000E-04  1.4000E-04  1.3800E-04  1.3800E-04  1.3800E-04  1.3600E-04  1.3600E-04  1.3400E-04  1.3400E-04
       1.3200E-04  1.3200E-04  1.3000E-04  1.2800E-04  1.2800E-04  1.2600E-04  1.2600E-04  1.2400E-04  1.2400E-04  1.2400E-04
       1.2200E-04  1.2200E-04  1.2200E-04  1.2200E-04  1.2400E-04  1.2400E-04  1.2400E-04  1.2600E-04  1.2600E-04  1.2800E-04
       1.3000E-04  1.3000E-04  1.3200E-04  1.3200E-04  1.3400E-04
  34   1.4000E-04  1.4000E-04  1.3800E-04  1.3800E-04  1.3800E-04  1.3600E-04  1.3600E-04  1.3400E-04  1.3400E-04  1.3200E-04
       1.3200E-04  1.3000E-04  1.3000E-04  1.2800E-04  1.2800E-04  1.2600E-04  1.2600E-04  1.2600E-04  1.2400E-04  1.2400E-04
       1.2400E-04  1.2400E-04  1.2400E-04  1.2400E-04  1.2400E-04  1.2400E-04  1.2600E-04  1.2600E-04  1.2600E-04  1.2800E-04
       1.2800E-04  1.3000E-04  1.3200E-04  1.3200E-04  1.3200E-04
  35   1.4000E-04  1.3800E-04  1.3800E-04  1.3800E-04  1.3600E-04  1.3600E-04  1.3600E-04  1.3400E-04  1.3400E-04  1.3200E-04
       1.3200E-04  1.3000E-04  1.3000E-04  1.2800E-04  1.2800E-04  1.2800E-04  1.2600E-04  1.2600E-04  1.2400E-04  1.2400E-04
       1.2400E-04  1.2400E-04  1.2400E-04  1.2400E-04  1.2400E-04  1.2600E-04  1.2600E-04  1.2600E-04  1.2800E-04  1.2800E-04
       1.2800E-04  1.3000E-04  1.3000E-04   1.000      1.3200E-04
  36   1.3800E-04  1.3800E-04  1.3800E-04  1.3800E-04  1.3600E-04  1.3600E-04  1.3400E-04  1.3400E-04  1.3400E-04  1.3200E-04
       1.3200E-04  1.3000E-04  1.3000E-04  1.2800E-04  1.2800E-04  1.2800E-04  1.2600E-04  1.2600E-04  1.2600E-04  1.2400E-04
       1.2400E-04  1.2400E-04  1.2400E-04  1.2400E-04  1.2600E-04  1.2600E-04  1.2600E-04  1.2600E-04  1.2800E-04  1.2800E-04
       1.2800E-04   1.000       1.000       1.000       1.000    
  37   1.3800E-04  1.3800E-04  1.3800E-04  1.3600E-04  1.3600E-04  1.3600E-04  1.3400E-04  1.3400E-04  1.3200E-04  1.3200E-04
       1.3200E-04  1.3000E-04  1.3000E-04  1.2800E-04  1.2800E-04  1.2800E-04  1.2600E-04  1.2600E-04  1.2600E-04  1.2600E-04
       1.2600E-04  1.2600E-04  1.2600E-04  1.2600E-04  1.2600E-04  1.2600E-04  1.2600E-04  1.2600E-04  1.2800E-04  1.2800E-04
        1.000       1.000      1.3000E-04  1.3200E-04  1.3200E-04
  38   1.3800E-04  1.3800E-04  1.3600E-04  1.3600E-04  1.3600E-04  1.3400E-04  1.3400E-04  1.3400E-04  1.3200E-04  1.3200E-04
       1.3200E-04  1.3000E-04  1.3000E-04  1.3000E-04  1.2800E-04  1.2800E-04  1.2800E-04  1.2600E-04  1.2600E-04  1.2600E-04
       1.2600E-04  1.2600E-04  1.2600E-04  1.2600E-04  1.2600E-04  1.2600E-04  1.2600E-04  1.2800E-04  1.2800E-04   1.000    
        1.000      1.3000E-04  1.3000E-04  1.3200E-04  1.3200E-04
  39   1.3800E-04  1.3800E-04  1.3600E-04  1.3600E-04  1.3600E-04  1.3400E-04  1.3400E-04  1.3400E-04  1.3200E-04  1.3200E-04
       1.3200E-04  1.3000E-04  1.3000E-04  1.3000E-04  1.2800E-04  1.2800E-04  1.2800E-04  1.2600E-04  1.2600E-04  1.2600E-04
       1.2600E-04  1.2600E-04  1.2600E-04  1.2600E-04  1.2600E-04  1.2600E-04  1.2600E-04  1.2800E-04   1.000       1.000    
       1.3000E-04  1.3000E-04  1.3000E-04  1.3200E-04  1.3200E-04
  40   1.3800E-04  1.3600E-04  1.3600E-04  1.3600E-04  1.3600E-04  1.3400E-04  1.3400E-04  1.3400E-04  1.3200E-04  1.3200E-04
       1.3200E-04  1.3000E-04  1.3000E-04  1.3000E-04  1.2800E-04  1.2800E-04  1.2800E-04  1.2800E-04  1.2600E-04  1.2600E-04
       1.2600E-04  1.2600E-04  1.2600E-04  1.2600E-04  1.2600E-04  1.2600E-04   1.000       1.000       1.000      1.2800E-04
       1.3000E-04  1.3000E-04  1.3000E-04  1.3000E-04  1.3200E-04
  41   1.3600E-04  1.3600E-04  1.3600E-04  1.3600E-04  1.3400E-04  1.3400E-04  1.3400E-04  1.3200E-04  1.3200E-04  1.3200E-04
       1.3200E-04  1.3000E-04  1.3000E-04  1.3000E-04  1.2800E-04  1.2800E-04  1.2800E-04  1.2800E-04  1.2800E-04  1.2800E-04
       1.2600E-04   1.000       1.000       1.000       1.000       1.000       1.000      1.2800E-04  1.2800E-04  1.2800E-04
       1.3000E-04  1.3000E-04  1.3000E-04  1.3000E-04  1.3200E-04
  42   1.3600E-04  1.3600E-04  1.3600E-04  1.3600E-04  1.3400E-04  1.3400E-04  1.3400E-04  1.3200E-04  1.3200E-04  1.3200E-04
       1.3200E-04  1.3000E-04  1.3000E-04  1.3000E-04   1.000       1.000       1.000       1.000       1.000       1.000    
        1.000       1.000      1.2800E-04  1.2800E-04  1.2800E-04  1.2800E-04  1.2800E-04  1.2800E-04  1.2800E-04  1.2800E-04
       1.3000E-04  1.3000E-04  1.3000E-04  1.3000E-04  1.3200E-04
  43   1.3600E-04  1.3600E-04  1.3600E-04  1.3400E-04  1.3400E-04  1.3400E-04  1.3400E-04  1.3200E-04  1.3200E-04   1.000    
        1.000       1.000       1.000       1.000       1.000      1.2800E-04  1.2800E-04   1.000      1.2800E-04  1.2800E-04
       1.2800E-04  1.2800E-04  1.2800E-04  1.2800E-04  1.2800E-04  1.2800E-04  1.2800E-04  1.2800E-04  1.2800E-04  1.3000E-04
       1.3000E-04  1.3000E-04  1.3000E-04  1.3000E-04  1.3200E-04
  44   1.3600E-04  1.3600E-04   1.000       1.000       1.000       1.000       1.000       1.000       1.000       1.000    
       1.3200E-04  1.3000E-04  1.3000E-04  1.3000E-04  1.3000E-04  1.3000E-04  1.2800E-04  1.2800E-04  1.2800E-04  1.2800E-04
       1.2800E-04  1.2800E-04  1.2800E-04  1.2800E-04  1.2800E-04  1.2800E-04  1.2800E-04  1.2800E-04  1.2800E-04  1.3000E-04
       1.3000E-04  1.3000E-04  1.3000E-04  1.3000E-04  1.3200E-04
  45    1.000       1.000       1.000      1.3400E-04  1.3400E-04  1.3400E-04  1.3400E-04  1.3200E-04  1.3200E-04  1.3200E-04
       1.3200E-04  1.3000E-04  1.3000E-04  1.3000E-04  1.3000E-04  1.3000E-04  1.2800E-04  1.2800E-04  1.2800E-04  1.2800E-04
       1.2800E-04  1.2800E-04  1.2800E-04  1.2800E-04  1.2800E-04  1.2800E-04  1.2800E-04  1.2800E-04  1.3000E-04  1.3000E-04
       1.3000E-04  1.3000E-04  1.3000E-04  1.3000E-04  1.3200E-04

         SPECIFIC STORAGE =  1.000000E-05 FOR LAYER   1

           SPECIFIC YIELD =  0.200000     FOR LAYER   1



                   WETDRY PARAMETER FOR LAYER   1
 READING ON UNIT   14 WITH FORMAT: (FREE)              

            1           2           3           4           5           6           7           8           9          10
           11          12          13          14          15          16          17          18          19          20
           21          22          23          24          25          26          27          28          29          30
           31          32          33          34          35
 ........................................................................................................................
   1   0.7310      0.7310      0.7310      0.7286      0.7241      0.7197      0.7152      0.7107      0.7062      0.7018    
       0.6973      0.6928      0.6883      0.6839      0.6794      0.6749      0.6747      0.6747      0.6747      0.6747    
       0.6747      0.6747      0.6691      0.6588      0.6485      0.6382      0.6279      0.6175      0.6072      0.5969    
       0.5866      0.5762      0.5659      0.5556      0.5456    
   2   0.7310      0.7310      0.7310      0.7301      0.7257      0.7212      0.7167      0.7122      0.7078      0.7033    
       0.6988      0.6943      0.6899      0.6854      0.6809      0.6765      0.6747      0.6747      0.6747      0.6747    
       0.6747      0.6702      0.6599      0.6496      0.6392      0.6289      0.6186      0.6083      0.5979      0.5876    
       0.5773      0.5670      0.5566      0.5463      0.5363    
   3   0.7310      0.7310      0.7310      0.7310      0.7272      0.7227      0.7183      0.7138      0.7093      0.7048    
       0.7004      0.6959      0.6914      0.6869      0.6825      0.6780      0.6747      0.6747      0.6747      0.6747    
       0.6712      0.6609      0.6506      0.6403      0.6300      0.6196      0.6093      0.5990      0.5887      0.5783    
       0.5680      0.5577      0.5474      0.5371      0.5270    
   4   0.7310      0.7310      0.7310      0.7310      0.7288      0.7243      0.7198      0.7153      0.7109      0.7064    
       0.7019      0.6974      0.6930      0.6885      0.6840      0.6795      0.6751      0.6747      0.6747      0.6723    
       0.6620      0.6517      0.6413      0.6310      0.6207      0.6104      0.6000      0.5897      0.5794      0.5691    
       0.5587      0.5484      0.5381      0.5278      0.5177    
   5   0.7310      0.7310      0.7310      0.7310      0.7303      0.7258      0.7213      0.7169      0.7124      0.7079    
       0.7034      0.6990      0.6945      0.6900      0.6855      0.6811      0.6766      0.6747      0.6733      0.6630    
       0.6527      0.6424      0.6321      0.6217      0.6114      0.6011      0.5908      0.5804      0.5701      0.5598    
       0.5495      0.5392      0.5288      0.5185      0.5085    
   6   0.7310      0.7310      0.7310      0.7310      0.7310      0.7274      0.7229      0.7184      0.7139      0.7095    
       0.7050      0.7005      0.6960      0.6916      0.6871      0.6826      0.6781      0.6744      0.6641      0.6538    
       0.6434      0.6331      0.6228      0.6125      0.6021      0.5918      0.5815      0.5712      0.5608      0.5505    
       0.5402      0.5299      0.5196      0.5092      0.4992    
   7   0.7310      0.7310      0.7310      0.7310      0.7310      0.7289      0.7244      0.7200      0.7155      0.7110    
       0.7065      0.7021      0.6976      0.6931      0.6886      0.6848      0.6811      0.6659      0.6548      0.6445    
       0.6342      0.6238      0.6135      0.6032      0.5929      0.5825      0.5722      0.5619      0.5516      0.5413    
       0.5309      0.5206      0.5103      0.5000      0.4899    
   8   0.7310      0.7310      0.7310      0.7310      0.7310      0.7304      0.7260      0.7215      0.7170      0.7125    
       0.7081      0.7036      0.6997      0.6963      0.6930      0.6891      0.6738      0.6585      0.6432      0.6352    
       0.6249      0.6146      0.6042      0.5939      0.5836      0.5733      0.5629      0.5526      0.5423      0.5320    
       0.5217      0.5113      0.5010      0.4907      0.4807    
   9   0.7310      0.7310      0.7310      0.7310      0.7310      0.7310      0.7275      0.7230      0.7186      0.7145    
       0.7112      0.7078      0.7045      0.7011      0.6970      0.6817      0.6664      0.6511      0.6359      0.6206    
       0.6156      0.6053      0.5950      0.5846      0.5743      0.5640      0.5537      0.5434      0.5330      0.5227    
       0.5124      0.5021      0.4917      0.4814      0.4714    
  10   0.7241      0.7254      0.7267      0.7280      0.7293      0.7306      0.7294      0.7260      0.7227      0.7193    
       0.7159      0.7126      0.7092      0.7049      0.6896      0.6743      0.6591      0.6438      0.6285      0.6132    
       0.5979      0.5931      0.5857      0.5754      0.5650      0.5547      0.5444      0.5341      0.5238      0.5134    
       0.5031      0.4928      0.4825      0.4721      0.4621    
  11   0.7133      0.7146      0.7159      0.7172      0.7185      0.7198      0.7243      0.7308      0.7274      0.7241    
       0.7207      0.7174      0.7128      0.6975      0.6822      0.6670      0.6517      0.6364      0.6211      0.6059    
       0.5906      0.5753      0.5702      0.5661      0.5558      0.5455      0.5351      0.5248      0.5145      0.5042    
       0.4938      0.4835      0.4732      0.4629      0.4528    
  12   0.7024      0.7037      0.7050      0.7063      0.7076      0.7089      0.7141      0.7213      0.7284      0.7288    
       0.7255      0.7207      0.7054      0.6902      0.6749      0.6596      0.6443      0.6291      0.6138      0.5985    
       0.5832      0.5679      0.5527      0.5473      0.5465      0.5362      0.5259      0.5155      0.5052      0.4949    
       0.4846      0.4742      0.4639      0.4536      0.4436    
  13   0.7010      0.7010      0.7010      0.7010      0.7010      0.6980      0.6982      0.7072      0.7161      0.7251    
       0.7286      0.7134      0.6981      0.6828      0.6675      0.6522      0.6370      0.6217      0.6064      0.5911    
       0.5759      0.5606      0.5453      0.5300      0.5244      0.5269      0.5166      0.5063      0.4959      0.4856    
       0.4753      0.4650      0.4547      0.4443      0.4343    
  14   0.7010      0.7010      0.7010      0.6991      0.6847      0.6704      0.6585      0.6675      0.6764      0.6854    
       0.6942      0.7031      0.6918      0.6763      0.6607      0.6451      0.6296      0.6143      0.5991      0.5838    
       0.5685      0.5532      0.5379      0.5227      0.5074      0.5014      0.5073      0.4970      0.4867      0.4763    
       0.4660      0.4557      0.4454      0.4351      0.4250    
  15   0.7010      0.7001      0.6858      0.6714      0.6571      0.6427      0.6284      0.6278      0.6367      0.6456    
       0.6545      0.6633      0.6721      0.6707      0.6552      0.6396      0.6240      0.6084      0.5929      0.5773    
       0.5617      0.5462      0.5306      0.5153      0.5000      0.4848      0.4785      0.4877      0.4774      0.4671    
       0.4568      0.4464      0.4361      0.4258      0.4158    
  16   0.6868      0.6725      0.6581      0.6438      0.6294      0.6151      0.6008      0.5880      0.5970      0.6059    
       0.6147      0.6235      0.6324      0.6412      0.6496      0.6341      0.6185      0.6029      0.5873      0.5718    
       0.5562      0.5406      0.5251      0.5095      0.4939      0.4783      0.4628      0.4556      0.4681      0.4578    
       0.4475      0.4372      0.4268      0.4165      0.4065    
  17   0.6592      0.6448      0.6305      0.6162      0.6018      0.5875      0.5731      0.5588      0.5573      0.5661    
       0.5750      0.5838      0.5926      0.6014      0.6103      0.6191      0.6130      0.5974      0.5818      0.5662    
       0.5507      0.5351      0.5195      0.5040      0.4884      0.4728      0.4594      0.4492      0.4391      0.4485    
       0.4382      0.4279      0.4176      0.4072      0.3972    
  18   0.6315      0.6172      0.6029      0.5885      0.5742      0.5598      0.5455      0.5312      0.5179      0.5264    
       0.5352      0.5440      0.5529      0.5617      0.5705      0.5793      0.5882      0.5919      0.5763      0.5607    
       0.5451      0.5296      0.5140      0.4984      0.4829      0.4677      0.4575      0.4474      0.4372      0.4271    
       0.4288      0.4186      0.4083      0.3980      0.3960    
  19   0.6039      0.5896      0.5752      0.5609      0.5465      0.5322      0.5180      0.5180      0.5174      0.5154    
       0.5135      0.5115      0.5131      0.5219      0.5308      0.5396      0.5484      0.5572      0.5661      0.5552    
       0.5396      0.5240      0.5085      0.4929      0.4773      0.4658      0.4557      0.4455      0.4353      0.4252    
       0.4150      0.4059      0.3990      0.3960      0.3960    
  20   0.5763      0.5619      0.5476      0.5333      0.5189      0.5180      0.5180      0.5180      0.5168      0.5149    
       0.5129      0.5110      0.5090      0.5071      0.5052      0.5032      0.5087      0.5175      0.5263      0.5351    
       0.5341      0.5185      0.5029      0.4874      0.4741      0.4639      0.4538      0.4436      0.4335      0.4233    
       0.4132      0.4040      0.3960      0.3960      0.3960    
  21   0.5486      0.5343      0.5200      0.5180      0.5180      0.5180      0.5180      0.5180      0.5163      0.5144    
       0.5124      0.5105      0.5085      0.5066      0.5046      0.5027      0.5007      0.4988      0.4968      0.4954    
       0.5042      0.5130      0.4974      0.4824      0.4722      0.4621      0.4519      0.4428      0.4336      0.4245    
       0.4153      0.4062      0.3971      0.3960      0.3960    
  22   0.5210      0.5180      0.5180      0.5180      0.5180      0.5180      0.5180      0.5177      0.5158      0.5138    
       0.5119      0.5099      0.5080      0.5060      0.5041      0.5021      0.5002      0.4982      0.4963      0.4943    
       0.4924      0.4904      0.4885      0.4816      0.4725      0.4633      0.4542      0.4450      0.4359      0.4267    
       0.4176      0.4084      0.3993      0.3960      0.3960    
  23   0.5180      0.5180      0.5180      0.5180      0.5180      0.5180      0.5180      0.5172      0.5152      0.5133    
       0.5113      0.5094      0.5074      0.5055      0.5035      0.5016      0.4997      0.4977      0.4958      0.4938    
       0.4919      0.4899      0.4880      0.4839      0.4747      0.4656      0.4564      0.4473      0.4381      0.4290    
       0.4198      0.4107      0.4015      0.3960      0.3960    
  24   0.5180      0.5180      0.5180      0.5180      0.5180      0.5180      0.5180      0.5166      0.5147      0.5127    
       0.5108      0.5089      0.5069      0.5050      0.5030      0.5011      0.4991      0.4972      0.4952      0.4933    
       0.4913      0.4894      0.4880      0.4861      0.4770      0.4678      0.4587      0.4495      0.4404      0.4312    
       0.4221      0.4129      0.4038      0.3960      0.3960    
  25   0.5180      0.5180      0.5180      0.5180      0.5180      0.5180      0.5180      0.5161      0.5142      0.5122    
       0.5103      0.5083      0.5064      0.5044      0.5025      0.5005      0.4986      0.4966      0.4947      0.4927    
       0.4908      0.4888      0.4880      0.4880      0.4792      0.4701      0.4609      0.4518      0.4426      0.4335    
       0.4243      0.4152      0.4060      0.3969      0.3960    
  26   0.5180      0.5180      0.5180      0.5180      0.5180      0.5180      0.5175      0.5156      0.5136      0.5117    
       0.5097      0.5078      0.5058      0.5039      0.5019      0.5000      0.4980      0.4961      0.4941      0.4922    
       0.4903      0.4883      0.4880      0.4880      0.4814      0.4723      0.4632      0.4540      0.4449      0.4357    
       0.4266      0.4174      0.4083      0.3991      0.3960    
  27   0.5180      0.5180      0.5180      0.5180      0.5180      0.5180      0.5170      0.5150      0.5131      0.5111    
       0.5092      0.5072      0.5053      0.5034      0.5014      0.4995      0.4975      0.4956      0.4936      0.4917    
       0.4897      0.4880      0.4880      0.4880      0.4837      0.4745      0.4654      0.4563      0.4471      0.4380    
       0.4288      0.4197      0.4105      0.4014      0.3960    
  28   0.5180      0.5180      0.5180      0.5180      0.5180      0.5180      0.5165      0.5145      0.5126      0.5106    
       0.5087      0.5067      0.5048      0.5028      0.5009      0.4989      0.4970      0.4950      0.4931      0.4911    
       0.4892      0.4880      0.4880      0.4880      0.4859      0.4768      0.4676      0.4585      0.4494      0.4402    
       0.4311      0.4219      0.4128      0.4036      0.3960    
  29   0.5180      0.5180      0.5180      0.5180      0.5180      0.5179      0.5159      0.5140      0.5120      0.5101    
       0.5081      0.5062      0.5042      0.5023      0.5003      0.4984      0.4964      0.4945      0.4925      0.4906    
       0.4886      0.4880      0.4880      0.4880      0.4880      0.4790      0.4699      0.4607      0.4516      0.4425    
       0.4333      0.4242      0.4150      0.4059      0.3970    
  30   0.5180      0.5180      0.5180      0.5180      0.5180      0.5173      0.5154      0.5134      0.5115      0.5095    
       0.5076      0.5056      0.5037      0.5017      0.4998      0.4979      0.4959      0.4940      0.4920      0.4901    
       0.4881      0.4880      0.4880      0.4880      0.4880      0.4813      0.4721      0.4630      0.4538      0.4447    
       0.4356      0.4264      0.4173      0.4081      0.3992    
  31   0.5180      0.5180      0.5180      0.5180      0.5180      0.5168      0.5148      0.5129      0.5110      0.5090    
       0.5071      0.5051      0.5032      0.5012      0.4993      0.4973      0.4954      0.4934      0.4915      0.4895    
       0.4880      0.4880      0.4880      0.4880      0.4880      0.4835      0.4744      0.4652      0.4561      0.4470    
       0.4378      0.4287      0.4195      0.4104      0.4015    
  32   0.5180      0.5180      0.5180      0.5180      0.5180      0.5163      0.5143      0.5124      0.5104      0.5085    
       0.5065      0.5046      0.5026      0.5007      0.4987      0.4968      0.4948      0.4929      0.4909      0.4890    
       0.4880      0.4880      0.4880      0.4880      0.4880      0.4858      0.4766      0.4675      0.4583      0.4492    
       0.4401      0.4309      0.4218      0.4126      0.4037    
  33   0.5180      0.5180      0.5180      0.5180      0.5177      0.5157      0.5138      0.5118      0.5099      0.5079    
       0.5060      0.5040      0.5021      0.5001      0.4982      0.4962      0.4943      0.4924      0.4904      0.4885    
       0.4880      0.4880      0.4880      0.4880      0.4880      0.4880      0.4789      0.4697      0.4606      0.4514    
       0.4423      0.4332      0.4240      0.4149      0.4060    
  34   0.5180      0.5180      0.5180      0.5180      0.5171      0.5152      0.5132      0.5113      0.5093      0.5074    
       0.5054      0.5035      0.5016      0.4996      0.4977      0.4957      0.4938      0.4918      0.4899      0.4880    
       0.4880      0.4880      0.4880      0.4880      0.4880      0.4880      0.4811      0.4720      0.4628      0.4537    
       0.4445      0.4354      0.4263      0.4171      0.4082    
  35   0.5180      0.5180      0.5180      0.5180      0.5166      0.5147      0.5127      0.5108      0.5088      0.5069    
       0.5049      0.5030      0.5010      0.4991      0.4971      0.4952      0.4932      0.4913      0.4893      0.4880    
       0.4880      0.4880      0.4880      0.4880      0.4880      0.4880      0.4834      0.4742      0.4651      0.4559    
       0.4468      0.4376      0.4285      0.4194      0.4105    
  36   0.5180      0.5180      0.5180      0.5180      0.5161      0.5141      0.5122      0.5102      0.5083      0.5063    
       0.5044      0.5024      0.5005      0.4985      0.4966      0.4946      0.4927      0.4907      0.4888      0.4880    
       0.4880      0.4880      0.4880      0.4880      0.4880      0.4880      0.4856      0.4765      0.4673      0.4582    
       0.4490      0.4399      0.4307      0.4216      0.4127    
  37   0.5180      0.5180      0.5180      0.5175      0.5155      0.5136      0.5116      0.5097      0.5077      0.5058    
       0.5038      0.5019      0.4999      0.4980      0.4961      0.4941      0.4922      0.4902      0.4883      0.4880    
       0.4880      0.4880      0.4880      0.4880      0.4880      0.4880      0.4879      0.4787      0.4696      0.4604    
       0.4513      0.4421      0.4330      0.4238      0.4150    
  38   0.5180      0.5180      0.5180      0.5169      0.5150      0.5130      0.5111      0.5092      0.5072      0.5053    
       0.5033      0.5014      0.4994      0.4975      0.4955      0.4936      0.4916      0.4897      0.4880      0.4880    
       0.4880      0.4880      0.4880      0.4880      0.4880      0.4880      0.4880      0.4810      0.4718      0.4627    
       0.4535      0.4444      0.4352      0.4261      0.4172    
  39   0.5180      0.5180      0.5180      0.5164      0.5145      0.5125      0.5106      0.5086      0.5067      0.5047    
       0.5028      0.5008      0.4989      0.4969      0.4950      0.4930      0.4911      0.4891      0.4880      0.4880    
       0.4880      0.4880      0.4880      0.4880      0.4880      0.4880      0.4880      0.4832      0.4741      0.4649    
       0.4558      0.4466      0.4375      0.4283      0.4194    
  40   0.5180      0.5180      0.5178      0.5159      0.5139      0.5120      0.5100      0.5081      0.5061      0.5042    
       0.5022      0.5003      0.4983      0.4964      0.4944      0.4925      0.4906      0.4886      0.4880      0.4880    
       0.4880      0.4880      0.4880      0.4880      0.4880      0.4880      0.4880      0.4855      0.4763      0.4672    
       0.4580      0.4489      0.4397      0.4306      0.4217    
  41   0.5180      0.5180      0.5173      0.5153      0.5134      0.5114      0.5095      0.5075      0.5056      0.5037    
       0.5017      0.4998      0.4978      0.4959      0.4939      0.4920      0.4900      0.4881      0.4880      0.4880    
       0.4880      0.4880      0.4880      0.4880      0.4880      0.4880      0.4880      0.4877      0.4786      0.4694    
       0.4603      0.4511      0.4420      0.4328      0.4239    
  42   0.5180      0.5180      0.5167      0.5148      0.5129      0.5109      0.5090      0.5070      0.5051      0.5031    
       0.5012      0.4992      0.4973      0.4953      0.4934      0.4914      0.4895      0.4880      0.4880      0.4880    
       0.4880      0.4880      0.4880      0.4880      0.4880      0.4880      0.4880      0.4880      0.4808      0.4717    
       0.4625      0.4534      0.4442      0.4351      0.4262    
  43   0.5180      0.5180      0.5162      0.5143      0.5123      0.5104      0.5084      0.5065      0.5045      0.5026    
       0.5006      0.4987      0.4967      0.4948      0.4928      0.4909      0.4889      0.4880      0.4880      0.4880    
       0.4880      0.4880      0.4880      0.4880      0.4880      0.4880      0.4880      0.4880      0.4830      0.4739    
       0.4648      0.4556      0.4465      0.4373      0.4284    
  44   0.5180      0.5176      0.5157      0.5137      0.5118      0.5098      0.5079      0.5059      0.5040      0.5020    
       0.5001      0.4982      0.4962      0.4943      0.4923      0.4904      0.4884      0.4880      0.4880      0.4880    
       0.4880      0.4880      0.4880      0.4880      0.4880      0.4880      0.4880      0.4880      0.4853      0.4761    
       0.4670      0.4579      0.4487      0.4396      0.4307    
  45   0.5180      0.5171      0.5151      0.5132      0.5112      0.5093      0.5074      0.5054      0.5035      0.5015    
       0.4996      0.4976      0.4957      0.4937      0.4918      0.4898      0.4880      0.4880      0.4880      0.4880    
       0.4880      0.4880      0.4880      0.4880      0.4880      0.4880      0.4880      0.4880      0.4875      0.4784    
       0.4692      0.4601      0.4510      0.4418      0.4329    



              HYD. COND. ALONG ROWS FOR LAYER   2
 READING ON UNIT   14 WITH FORMAT: (FREE)              

            1           2           3           4           5           6           7           8           9          10
           11          12          13          14          15          16          17          18          19          20
           21          22          23          24          25          26          27          28          29          30
           31          32          33          34          35
 ........................................................................................................................
   1   2.4000E-04  2.5000E-04  2.6000E-04  2.8000E-04  2.9000E-04  3.1000E-04  3.3000E-04  3.6000E-04  3.8000E-04  4.0000E-04
       4.3000E-04  4.5000E-04  4.7000E-04  4.9000E-04  5.0000E-04  5.2000E-04  5.2000E-04  5.2000E-04  5.2000E-04  5.1000E-04
       5.0000E-04  4.9000E-04  4.7000E-04  4.6000E-04  4.4000E-04  4.3000E-04  4.1000E-04  4.0000E-04  3.8000E-04  3.7000E-04
       3.6000E-04  3.5000E-04  3.4000E-04  3.3000E-04  3.2000E-04
   2   2.3000E-04  2.4000E-04  2.5000E-04  2.7000E-04  2.8000E-04  3.0000E-04  3.3000E-04  3.5000E-04  3.8000E-04  4.1000E-04
       4.4000E-04  4.6000E-04  4.8000E-04  5.0000E-04  5.2000E-04  5.3000E-04  5.4000E-04  5.4000E-04  5.3000E-04  5.2000E-04
       5.1000E-04  4.9000E-04  4.8000E-04  4.6000E-04  4.4000E-04  4.2000E-04  4.1000E-04  3.9000E-04  3.8000E-04  3.6000E-04
       3.5000E-04  3.4000E-04  3.3000E-04  3.2000E-04  3.1000E-04
   3   2.2000E-04  2.3000E-04  2.4000E-04  2.6000E-04  2.7000E-04  2.9000E-04  3.2000E-04  3.5000E-04  3.8000E-04  4.1000E-04
       4.4000E-04  4.7000E-04  5.0000E-04  5.2000E-04  5.4000E-04  5.5000E-04  5.6000E-04  5.6000E-04  5.5000E-04  5.4000E-04
       5.2000E-04  5.0000E-04  4.8000E-04  4.6000E-04  4.4000E-04  4.2000E-04  4.0000E-04  3.9000E-04  3.7000E-04  3.6000E-04
       3.4000E-04  3.3000E-04  3.2000E-04  3.1000E-04  3.0000E-04
   4   2.1000E-04  2.2000E-04  2.3000E-04  2.4000E-04  2.6000E-04  2.8000E-04  3.1000E-04  3.4000E-04  3.8000E-04  4.1000E-04
       4.5000E-04  4.8000E-04  5.1000E-04  5.4000E-04  5.6000E-04  5.7000E-04  5.8000E-04  5.8000E-04  5.7000E-04  5.5000E-04
       5.3000E-04  5.0000E-04  4.8000E-04  4.6000E-04  4.4000E-04  4.2000E-04  4.0000E-04  3.8000E-04  3.6000E-04  3.5000E-04
       3.3000E-04  3.2000E-04  3.1000E-04  3.0000E-04  2.9000E-04
   5   2.0000E-04  2.1000E-04  2.2000E-04  2.3000E-04  2.5000E-04  2.7000E-04  3.0000E-04  3.4000E-04  3.8000E-04  4.2000E-04
       4.6000E-04  4.9000E-04  5.3000E-04  5.5000E-04  5.7000E-04  5.9000E-04  6.0000E-04  6.0000E-04  5.8000E-04  5.6000E-04
       5.3000E-04  5.1000E-04  4.8000E-04  4.5000E-04  4.3000E-04  4.1000E-04  3.9000E-04  3.7000E-04  3.5000E-04  3.4000E-04
       3.2000E-04  3.1000E-04  3.0000E-04  2.9000E-04  2.8000E-04
   6   1.9000E-04  2.0000E-04  2.0000E-04  2.1000E-04  2.3000E-04  2.5000E-04  2.9000E-04  3.3000E-04  3.8000E-04  4.2000E-04
       4.7000E-04  5.1000E-04  5.4000E-04  5.7000E-04  5.9000E-04  6.1000E-04  6.2000E-04  6.2000E-04  5.9000E-04  5.6000E-04
       5.3000E-04  5.0000E-04  4.7000E-04  4.5000E-04  4.2000E-04  4.0000E-04  3.8000E-04  3.6000E-04  3.4000E-04  3.2000E-04
       3.1000E-04  3.0000E-04  2.9000E-04  2.8000E-04  2.7000E-04
   7   1.9000E-04  1.9000E-04  1.9000E-04  2.0000E-04  2.1000E-04  2.3000E-04  2.7000E-04  3.2000E-04  3.8000E-04  4.3000E-04
       4.8000E-04  5.2000E-04  5.6000E-04  5.8000E-04  6.0000E-04  6.2000E-04  6.3000E-04  6.2000E-04  5.9000E-04  5.6000E-04
       5.3000E-04  5.0000E-04  4.7000E-04  4.4000E-04  4.1000E-04  3.8000E-04  3.6000E-04  3.4000E-04  3.2000E-04  3.1000E-04
       3.0000E-04  2.8000E-04  2.7000E-04  2.7000E-04  2.6000E-04
   8   1.8000E-04  1.8000E-04  1.8000E-04  1.8000E-04  1.9000E-04  2.1000E-04  2.5000E-04  3.2000E-04  3.9000E-04  4.5000E-04
       5.0000E-04  5.4000E-04  5.7000E-04  6.0000E-04  6.1000E-04  6.2000E-04  6.2000E-04  6.0000E-04  5.8000E-04  5.5000E-04
       5.2000E-04  4.8000E-04  4.5000E-04  4.2000E-04  3.9000E-04  3.7000E-04  3.4000E-04  3.2000E-04  3.1000E-04  2.9000E-04
       2.8000E-04  2.7000E-04  2.6000E-04  2.5000E-04  2.5000E-04
   9   1.9000E-04  1.8000E-04  1.8000E-04  1.8000E-04  1.7000E-04  1.8000E-04  2.4000E-04  3.2000E-04  4.0000E-04  4.7000E-04
       5.3000E-04  5.7000E-04  5.9000E-04  6.1000E-04  6.2000E-04  6.2000E-04  6.1000E-04  5.9000E-04  5.7000E-04  5.4000E-04
       5.0000E-04  4.7000E-04  4.4000E-04  4.1000E-04  3.8000E-04  3.5000E-04  3.3000E-04  3.0000E-04  2.9000E-04  2.7000E-04
       2.6000E-04  2.5000E-04  2.5000E-04  2.4000E-04  2.3000E-04
  10   1.9000E-04  1.9000E-04  1.9000E-04  1.8000E-04  1.7000E-04  1.5000E-04  2.3000E-04  3.4000E-04  4.4000E-04  5.1000E-04
       5.7000E-04  6.0000E-04  6.2000E-04  6.2000E-04  6.2000E-04  6.1000E-04  6.0000E-04  5.8000E-04  5.5000E-04  5.2000E-04
       4.9000E-04  4.5000E-04  4.2000E-04  3.8000E-04  3.5000E-04  3.3000E-04  3.0000E-04  2.8000E-04  2.7000E-04  2.5000E-04
       2.4000E-04  2.4000E-04  2.3000E-04  2.3000E-04  2.2000E-04
  11   2.0000E-04  2.1000E-04  2.1000E-04  2.2000E-04  2.2000E-04  2.3000E-04  2.9000E-04  3.9000E-04  4.9000E-04  5.7000E-04
       6.2000E-04  6.4000E-04  6.4000E-04  6.3000E-04  6.2000E-04  6.0000E-04  5.8000E-04  5.6000E-04  5.3000E-04  5.0000E-04
       4.7000E-04  4.3000E-04  4.0000E-04  3.6000E-04  3.3000E-04  3.0000E-04  2.8000E-04  2.6000E-04  2.4000E-04  2.3000E-04
       2.2000E-04  2.2000E-04  2.1000E-04  2.1000E-04  2.1000E-04
  12   2.2000E-04  2.3000E-04  2.4000E-04  2.6000E-04  3.0000E-04  3.4000E-04  3.9000E-04  4.6000E-04  5.5000E-04  6.3000E-04
       6.7000E-04  6.7000E-04  6.6000E-04  6.4000E-04  6.2000E-04  5.9000E-04  5.7000E-04  5.4000E-04  5.1000E-04  4.8000E-04
       4.4000E-04  4.1000E-04  3.7000E-04  3.4000E-04  3.0000E-04  2.7000E-04  2.5000E-04  2.3000E-04  2.2000E-04  2.1000E-04
       2.0000E-04  2.0000E-04  2.0000E-04  2.0000E-04  2.0000E-04
  13   2.3000E-04  2.5000E-04  2.7000E-04  3.0000E-04  3.6000E-04  4.3000E-04  4.5000E-04  5.1000E-04  5.9000E-04  6.9000E-04
       7.3000E-04  6.9000E-04  6.6000E-04  6.3000E-04  6.1000E-04  5.8000E-04  5.5000E-04  5.2000E-04  4.9000E-04  4.6000E-04
       4.2000E-04  3.8000E-04  3.5000E-04  3.1000E-04  2.8000E-04  2.4000E-04  2.2000E-04  2.0000E-04  1.9000E-04  1.9000E-04
       1.8000E-04  1.8000E-04  1.8000E-04  1.8000E-04  1.8000E-04
  14   2.4000E-04  2.6000E-04  2.8000E-04  3.2000E-04  3.7000E-04  4.2000E-04  4.6000E-04  5.2000E-04  5.9000E-04  6.6000E-04
       6.9000E-04  6.7000E-04  6.4000E-04  6.1000E-04  5.8000E-04  5.6000E-04  5.3000E-04  5.0000E-04  4.7000E-04  4.3000E-04
       4.0000E-04  3.6000E-04  3.2000E-04  2.9000E-04  2.5000E-04  2.1000E-04  1.9000E-04  1.7000E-04  1.7000E-04  1.7000E-04
       1.7000E-04  1.7000E-04  1.7000E-04  1.7000E-04  1.7000E-04
  15   2.4000E-04  2.6000E-04  2.9000E-04  3.2000E-04  3.6000E-04  4.0000E-04  4.4000E-04  4.8000E-04  5.4000E-04  5.9000E-04
       6.1000E-04  6.1000E-04  6.0000E-04  5.8000E-04  5.5000E-04  5.3000E-04  5.0000E-04  4.7000E-04  4.4000E-04  4.1000E-04
       3.8000E-04  3.4000E-04  3.0000E-04  2.6000E-04  2.2000E-04  1.8000E-04  1.5000E-04  1.4000E-04  1.4000E-04  1.5000E-04
       1.5000E-04  1.6000E-04  1.6000E-04  1.6000E-04  1.7000E-04
  16   2.4000E-04  2.6000E-04  2.8000E-04  3.1000E-04  3.4000E-04  3.6000E-04  3.9000E-04  4.3000E-04  4.6000E-04  5.1000E-04
       5.4000E-04  5.5000E-04  5.4000E-04  5.3000E-04  5.2000E-04  5.0000E-04  4.7000E-04  4.5000E-04  4.2000E-04  3.9000E-04
       3.6000E-04  3.2000E-04  2.8000E-04  2.5000E-04  2.1000E-04  1.6000E-04  1.2000E-04  1.2000E-04  1.3000E-04  1.4000E-04
       1.4000E-04  1.5000E-04  1.5000E-04  1.5000E-04  1.6000E-04
  17   2.4000E-04  2.5000E-04  2.7000E-04  2.9000E-04  3.1000E-04  3.3000E-04  3.4000E-04  3.6000E-04  3.9000E-04  4.3000E-04
       4.6000E-04  4.8000E-04  4.9000E-04  4.9000E-04  4.8000E-04  4.6000E-04  4.4000E-04  4.2000E-04  4.0000E-04  3.7000E-04
       3.4000E-04  3.1000E-04  2.7000E-04  2.3000E-04  2.0000E-04  1.6000E-04  1.3000E-04  1.2000E-04  1.3000E-04  1.3000E-04
       1.4000E-04  1.4000E-04  1.5000E-04  1.5000E-04  1.5000E-04
  18   2.3000E-04  2.4000E-04  2.6000E-04  2.7000E-04  2.8000E-04  2.9000E-04  2.9000E-04  2.9000E-04  3.1000E-04  3.6000E-04
       4.0000E-04  4.3000E-04  4.4000E-04  4.4000E-04  4.4000E-04  4.3000E-04  4.1000E-04  4.0000E-04  3.7000E-04  3.5000E-04
       3.2000E-04  2.9000E-04  2.6000E-04  2.3000E-04  2.0000E-04  1.7000E-04  1.4000E-04  1.3000E-04  1.3000E-04  1.3000E-04
       1.4000E-04  1.4000E-04  1.4000E-04  1.5000E-04  1.5000E-04
  19   2.2000E-04  2.3000E-04  2.4000E-04  2.5000E-04  2.6000E-04  2.6000E-04  2.7000E-04  2.6000E-04  2.8000E-04  3.2000E-04
       3.5000E-04  3.8000E-04  4.0000E-04  4.0000E-04  4.0000E-04  4.0000E-04  3.9000E-04  3.7000E-04  3.5000E-04  3.3000E-04
       3.1000E-04  2.8000E-04  2.5000E-04  2.3000E-04  2.0000E-04  1.7000E-04  1.5000E-04  1.4000E-04  1.4000E-04  1.4000E-04
       1.4000E-04  1.4000E-04  1.4000E-04  1.4000E-04  1.5000E-04
  20   2.2000E-04  2.3000E-04  2.3000E-04  2.4000E-04  2.4000E-04  2.5000E-04  2.5000E-04  2.6000E-04  2.7000E-04  3.0000E-04
       3.2000E-04  3.4000E-04  3.6000E-04  3.7000E-04  3.7000E-04  3.7000E-04  3.6000E-04  3.5000E-04  3.3000E-04  3.2000E-04
       3.0000E-04  2.7000E-04  2.5000E-04  2.3000E-04  2.0000E-04  1.8000E-04  1.6000E-04  1.5000E-04  1.4000E-04  1.4000E-04
       1.4000E-04  1.4000E-04  1.4000E-04  1.4000E-04  1.4000E-04
  21   2.1000E-04  2.2000E-04  2.2000E-04  2.3000E-04  2.3000E-04  2.4000E-04  2.4000E-04  2.5000E-04  2.6000E-04  2.8000E-04
       3.0000E-04  3.2000E-04  3.3000E-04  3.4000E-04  3.4000E-04  3.4000E-04  3.4000E-04  3.3000E-04  3.1000E-04  3.0000E-04
       2.8000E-04  2.7000E-04  2.5000E-04  2.3000E-04  2.0000E-04  1.8000E-04  1.7000E-04  1.6000E-04  1.5000E-04  1.4000E-04
       1.4000E-04  1.4000E-04  1.4000E-04  1.4000E-04  1.4000E-04
  22   2.0000E-04  2.1000E-04  2.1000E-04  2.2000E-04  2.2000E-04  2.3000E-04  2.3000E-04  2.4000E-04  2.5000E-04  2.7000E-04
       2.8000E-04  3.0000E-04  3.1000E-04  3.1000E-04  3.2000E-04  3.2000E-04  3.1000E-04  3.1000E-04  3.0000E-04  2.9000E-04
       2.7000E-04  2.6000E-04  2.5000E-04  2.3000E-04  2.1000E-04  1.9000E-04  1.7000E-04  1.6000E-04  1.5000E-04  1.5000E-04
       1.4000E-04  1.4000E-04  1.4000E-04  1.4000E-04  1.4000E-04
  23   2.0000E-04  2.0000E-04  2.1000E-04  2.1000E-04  2.2000E-04  2.2000E-04  2.3000E-04  2.3000E-04  2.4000E-04  2.5000E-04
       2.7000E-04  2.8000E-04  2.9000E-04  2.9000E-04  3.0000E-04  3.0000E-04  3.0000E-04  2.9000E-04  2.8000E-04  2.7000E-04
       2.6000E-04  2.5000E-04  2.4000E-04  2.2000E-04  2.0000E-04  1.9000E-04  1.8000E-04  1.7000E-04  1.6000E-04  1.5000E-04
       1.5000E-04  1.4000E-04  1.4000E-04  1.4000E-04  1.4000E-04
  24   1.9000E-04  2.0000E-04  2.0000E-04  2.1000E-04  2.1000E-04  2.1000E-04  2.2000E-04  2.3000E-04  2.4000E-04  2.4000E-04
       2.5000E-04  2.6000E-04  2.7000E-04  2.8000E-04  2.8000E-04  2.8000E-04  2.8000E-04  2.7000E-04  2.7000E-04  2.6000E-04
       2.5000E-04  2.4000E-04  2.3000E-04  2.2000E-04  2.0000E-04  1.9000E-04  1.8000E-04  1.7000E-04  1.6000E-04  1.5000E-04
       1.5000E-04  1.5000E-04  1.4000E-04  1.4000E-04  1.4000E-04
  25   1.9000E-04  1.9000E-04  2.0000E-04  2.0000E-04  2.0000E-04  2.1000E-04  2.1000E-04  2.2000E-04  2.3000E-04  2.3000E-04
       2.4000E-04  2.5000E-04  2.6000E-04  2.6000E-04  2.6000E-04  2.6000E-04  2.6000E-04  2.6000E-04  2.5000E-04  2.5000E-04
       2.4000E-04  2.3000E-04  2.2000E-04  2.1000E-04  2.0000E-04  1.9000E-04  1.8000E-04  1.7000E-04  1.6000E-04  1.5000E-04
       1.5000E-04  1.5000E-04  1.4000E-04  1.4000E-04  1.4000E-04
  26   1.8000E-04  1.9000E-04  1.9000E-04  1.9000E-04  2.0000E-04  2.0000E-04  2.1000E-04  2.1000E-04  2.2000E-04  2.3000E-04
       2.3000E-04  2.4000E-04  2.4000E-04  2.5000E-04  2.5000E-04  2.5000E-04  2.5000E-04  2.5000E-04  2.4000E-04  2.4000E-04
       2.3000E-04  2.2000E-04  2.1000E-04  2.0000E-04  1.9000E-04  1.8000E-04  1.8000E-04  1.7000E-04  1.6000E-04  1.5000E-04
       1.5000E-04  1.5000E-04  1.4000E-04  1.4000E-04  1.4000E-04
  27   1.8000E-04  1.8000E-04  1.9000E-04  1.9000E-04  1.9000E-04  2.0000E-04  2.0000E-04  2.1000E-04  2.1000E-04  2.2000E-04
       2.2000E-04  2.3000E-04  2.3000E-04  2.4000E-04  2.4000E-04  2.4000E-04  2.4000E-04  2.3000E-04  2.3000E-04  2.3000E-04
       2.2000E-04  2.1000E-04  2.1000E-04  2.0000E-04  1.9000E-04  1.8000E-04  1.7000E-04  1.7000E-04  1.6000E-04  1.5000E-04
       1.5000E-04  1.5000E-04  1.4000E-04  1.4000E-04  1.4000E-04
  28   1.8000E-04  1.8000E-04  1.8000E-04  1.9000E-04  1.9000E-04  1.9000E-04  2.0000E-04  2.0000E-04  2.1000E-04  2.1000E-04
       2.1000E-04  2.2000E-04  2.2000E-04  2.2000E-04  2.3000E-04  2.3000E-04  2.3000E-04  2.2000E-04  2.2000E-04  2.2000E-04
       2.1000E-04  2.1000E-04  2.0000E-04  1.9000E-04  1.9000E-04  1.8000E-04  1.7000E-04  1.7000E-04  1.6000E-04  1.5000E-04
       1.5000E-04  1.5000E-04  1.4000E-04  1.4000E-04  1.4000E-04
  29   1.7000E-04  1.8000E-04  1.8000E-04  1.8000E-04  1.8000E-04  1.9000E-04  1.9000E-04  2.0000E-04  2.0000E-04  2.0000E-04
       2.1000E-04  2.1000E-04  2.1000E-04  2.2000E-04  2.2000E-04  2.2000E-04  2.2000E-04  2.1000E-04  2.1000E-04  2.1000E-04
       2.0000E-04  2.0000E-04  1.9000E-04  1.9000E-04  1.8000E-04  1.8000E-04  1.7000E-04  1.6000E-04  1.6000E-04  1.5000E-04
       1.5000E-04  1.5000E-04  1.4000E-04  1.4000E-04  1.4000E-04
  30   1.7000E-04  1.7000E-04  1.7000E-04  1.8000E-04  1.8000E-04  1.8000E-04  1.9000E-04  1.9000E-04  1.9000E-04  2.0000E-04
       2.0000E-04  2.0000E-04  2.1000E-04  2.1000E-04  2.1000E-04  2.1000E-04  2.1000E-04  2.1000E-04  2.0000E-04  2.0000E-04
       2.0000E-04  1.9000E-04  1.9000E-04  1.8000E-04  1.8000E-04  1.7000E-04  1.7000E-04  1.6000E-04  1.6000E-04  1.5000E-04
       1.5000E-04  1.5000E-04  1.4000E-04  1.4000E-04  1.4000E-04
  31   1.7000E-04  1.7000E-04  1.7000E-04  1.7000E-04  1.8000E-04  1.8000E-04  1.8000E-04  1.9000E-04  1.9000E-04  1.9000E-04
       1.9000E-04  2.0000E-04  2.0000E-04  2.0000E-04  2.0000E-04  2.0000E-04  2.0000E-04  2.0000E-04  2.0000E-04  1.9000E-04
       1.9000E-04  1.9000E-04  1.8000E-04  1.8000E-04  1.7000E-04  1.7000E-04  1.6000E-04  1.6000E-04  1.5000E-04  1.5000E-04
       1.5000E-04  1.4000E-04  1.4000E-04  1.4000E-04  1.4000E-04
  32   1.6000E-04  1.7000E-04  1.7000E-04  1.7000E-04  1.7000E-04  1.8000E-04  1.8000E-04  1.8000E-04  1.8000E-04  1.9000E-04
       1.9000E-04  1.9000E-04  1.9000E-04  1.9000E-04  1.9000E-04  1.9000E-04  1.9000E-04  1.9000E-04  1.9000E-04  1.9000E-04
       1.8000E-04  1.8000E-04  1.8000E-04  1.7000E-04  1.7000E-04  1.6000E-04  1.6000E-04  1.6000E-04  1.5000E-04  1.5000E-04
       1.5000E-04  1.4000E-04  1.4000E-04  1.4000E-04  1.4000E-04
  33   1.6000E-04  1.6000E-04  1.6000E-04  1.7000E-04  1.7000E-04  1.7000E-04  1.7000E-04  1.8000E-04  1.8000E-04  1.8000E-04
       1.8000E-04  1.8000E-04  1.9000E-04  1.9000E-04  1.9000E-04  1.9000E-04  1.9000E-04  1.8000E-04  1.8000E-04  1.8000E-04
       1.8000E-04  1.8000E-04  1.7000E-04  1.7000E-04  1.7000E-04  1.6000E-04  1.6000E-04  1.5000E-04  1.5000E-04  1.5000E-04
       1.4000E-04  1.4000E-04  1.4000E-04  1.4000E-04  1.4000E-04
  34   1.6000E-04  1.6000E-04  1.6000E-04  1.6000E-04  1.7000E-04  1.7000E-04  1.7000E-04  1.7000E-04  1.7000E-04  1.8000E-04
       1.8000E-04  1.8000E-04  1.8000E-04  1.8000E-04  1.8000E-04  1.8000E-04  1.8000E-04  1.8000E-04  1.8000E-04  1.8000E-04
       1.7000E-04  1.7000E-04  1.7000E-04  1.6000E-04  1.6000E-04  1.6000E-04  1.6000E-04  1.5000E-04  1.5000E-04  1.5000E-04
       1.4000E-04  1.4000E-04  1.4000E-04  1.4000E-04  1.4000E-04
  35   1.5000E-04  1.6000E-04  1.6000E-04  1.6000E-04  1.6000E-04  1.6000E-04  1.7000E-04  1.7000E-04  1.7000E-04  1.7000E-04
       1.7000E-04  1.7000E-04  1.7000E-04  1.7000E-04  1.7000E-04  1.7000E-04  1.7000E-04  1.7000E-04  1.7000E-04  1.7000E-04
       1.7000E-04  1.7000E-04  1.6000E-04  1.6000E-04  1.6000E-04  1.6000E-04  1.5000E-04  1.5000E-04  1.5000E-04  1.4000E-04
       1.4000E-04  1.4000E-04  1.4000E-04  1.4000E-04  1.3000E-04
  36   1.5000E-04  1.5000E-04  1.5000E-04  1.6000E-04  1.6000E-04  1.6000E-04  1.6000E-04  1.6000E-04  1.6000E-04  1.7000E-04
       1.7000E-04  1.7000E-04  1.7000E-04  1.7000E-04  1.7000E-04  1.7000E-04  1.7000E-04  1.7000E-04  1.7000E-04  1.7000E-04
       1.6000E-04  1.6000E-04  1.6000E-04  1.6000E-04  1.6000E-04  1.5000E-04  1.5000E-04  1.5000E-04  1.4000E-04  1.4000E-04
       1.4000E-04  1.4000E-04  1.4000E-04  1.3000E-04  1.3000E-04
  37   1.5000E-04  1.5000E-04  1.5000E-04  1.5000E-04  1.6000E-04  1.6000E-04  1.6000E-04  1.6000E-04  1.6000E-04  1.6000E-04
       1.6000E-04  1.6000E-04  1.6000E-04  1.6000E-04  1.7000E-04  1.6000E-04  1.6000E-04  1.6000E-04  1.6000E-04  1.6000E-04
       1.6000E-04  1.6000E-04  1.6000E-04  1.5000E-04  1.5000E-04  1.5000E-04  1.5000E-04  1.5000E-04  1.4000E-04  1.4000E-04
       1.4000E-04  1.4000E-04  1.4000E-04  1.3000E-04  1.3000E-04
  38   1.5000E-04  1.5000E-04  1.5000E-04  1.5000E-04  1.5000E-04  1.5000E-04  1.5000E-04  1.6000E-04  1.6000E-04  1.6000E-04
       1.6000E-04  1.6000E-04  1.6000E-04  1.6000E-04  1.6000E-04  1.6000E-04  1.6000E-04  1.6000E-04  1.6000E-04  1.6000E-04
       1.6000E-04  1.5000E-04  1.5000E-04  1.5000E-04  1.5000E-04  1.5000E-04  1.4000E-04  1.4000E-04  1.4000E-04  1.4000E-04
       1.4000E-04  1.4000E-04  1.3000E-04  1.3000E-04  1.3000E-04
  39   1.4000E-04  1.5000E-04  1.5000E-04  1.5000E-04  1.5000E-04  1.5000E-04  1.5000E-04  1.5000E-04  1.5000E-04  1.5000E-04
       1.6000E-04  1.6000E-04  1.6000E-04  1.6000E-04  1.6000E-04  1.6000E-04  1.6000E-04  1.6000E-04  1.5000E-04  1.5000E-04
       1.5000E-04  1.5000E-04  1.5000E-04  1.5000E-04  1.5000E-04  1.4000E-04  1.4000E-04  1.4000E-04  1.4000E-04  1.4000E-04
       1.4000E-04  1.3000E-04  1.3000E-04  1.3000E-04  1.3000E-04
  40   1.4000E-04  1.4000E-04  1.4000E-04  1.5000E-04  1.5000E-04  1.5000E-04  1.5000E-04  1.5000E-04  1.5000E-04  1.5000E-04
       1.5000E-04  1.5000E-04  1.5000E-04  1.5000E-04  1.5000E-04  1.5000E-04  1.5000E-04  1.5000E-04  1.5000E-04  1.5000E-04
       1.5000E-04  1.5000E-04  1.5000E-04  1.4000E-04  1.4000E-04  1.4000E-04  1.4000E-04  1.4000E-04  1.4000E-04  1.4000E-04
       1.3000E-04  1.3000E-04  1.3000E-04  1.3000E-04  1.3000E-04
  41   1.4000E-04  1.4000E-04  1.4000E-04  1.4000E-04  1.4000E-04  1.4000E-04  1.5000E-04  1.5000E-04  1.5000E-04  1.5000E-04
       1.5000E-04  1.5000E-04  1.5000E-04  1.5000E-04  1.5000E-04  1.5000E-04  1.5000E-04  1.5000E-04  1.5000E-04  1.5000E-04
       1.5000E-04  1.4000E-04  1.4000E-04  1.4000E-04  1.4000E-04  1.4000E-04  1.4000E-04  1.4000E-04  1.3000E-04  1.3000E-04
       1.3000E-04  1.3000E-04  1.3000E-04  1.3000E-04  1.3000E-04
  42   1.4000E-04  1.4000E-04  1.4000E-04  1.4000E-04  1.4000E-04  1.4000E-04  1.4000E-04  1.4000E-04  1.4000E-04  1.4000E-04
       1.5000E-04  1.5000E-04  1.5000E-04  1.5000E-04  1.5000E-04  1.5000E-04  1.5000E-04  1.5000E-04  1.4000E-04  1.4000E-04
       1.4000E-04  1.4000E-04  1.4000E-04  1.4000E-04  1.4000E-04  1.4000E-04  1.4000E-04  1.3000E-04  1.3000E-04  1.3000E-04
       1.3000E-04  1.3000E-04  1.3000E-04  1.3000E-04  1.3000E-04
  43   1.3000E-04  1.4000E-04  1.4000E-04  1.4000E-04  1.4000E-04  1.4000E-04  1.4000E-04  1.4000E-04  1.4000E-04  1.4000E-04
       1.4000E-04  1.4000E-04  1.4000E-04  1.4000E-04  1.4000E-04  1.4000E-04  1.4000E-04  1.4000E-04  1.4000E-04  1.4000E-04
       1.4000E-04  1.4000E-04  1.4000E-04  1.4000E-04  1.4000E-04  1.3000E-04  1.3000E-04  1.3000E-04  1.3000E-04  1.3000E-04
       1.3000E-04  1.3000E-04  1.3000E-04  1.3000E-04  1.3000E-04
  44   1.3000E-04  1.3000E-04  1.3000E-04  1.4000E-04  1.4000E-04  1.4000E-04  1.4000E-04  1.4000E-04  1.4000E-04  1.4000E-04
       1.4000E-04  1.4000E-04  1.4000E-04  1.4000E-04  1.4000E-04  1.4000E-04  1.4000E-04  1.4000E-04  1.4000E-04  1.4000E-04
       1.4000E-04  1.4000E-04  1.4000E-04  1.3000E-04  1.3000E-04  1.3000E-04  1.3000E-04  1.3000E-04  1.3000E-04  1.3000E-04
       1.3000E-04  1.3000E-04  1.3000E-04  1.2000E-04  1.2000E-04
  45   1.3000E-04  1.3000E-04  1.3000E-04  1.3000E-04  1.3000E-04  1.3000E-04  1.4000E-04  1.4000E-04  1.4000E-04  1.4000E-04
       1.4000E-04  1.4000E-04  1.4000E-04  1.4000E-04  1.4000E-04  1.4000E-04  1.4000E-04  1.4000E-04  1.4000E-04  1.4000E-04
       1.4000E-04  1.3000E-04  1.3000E-04  1.3000E-04  1.3000E-04  1.3000E-04  1.3000E-04  1.3000E-04  1.3000E-04  1.3000E-04
       1.3000E-04  1.3000E-04  1.2000E-04  1.2000E-04  1.2000E-04

   HORIZ. ANI. (COL./ROW) =   1.00000     FOR LAYER   2



                VERTICAL HYD. COND. FOR LAYER   2
 READING ON UNIT   14 WITH FORMAT: (FREE)              

            1           2           3           4           5           6           7           8           9          10
           11          12          13          14          15          16          17          18          19          20
           21          22          23          24          25          26          27          28          29          30
           31          32          33          34          35
 ........................................................................................................................
   1   4.8000E-05  5.0000E-05  5.2000E-05  5.6000E-05  5.8000E-05  6.2000E-05  6.6000E-05  7.2000E-05  7.6000E-05  8.0000E-05
       8.6000E-05  9.0000E-05  9.4000E-05  9.8000E-05  1.0000E-04  1.0400E-04  1.0400E-04  1.0400E-04  1.0400E-04  1.0200E-04
       1.0000E-04  9.8000E-05  9.4000E-05  9.2000E-05  8.8000E-05   1.000       1.000       1.000       1.000       1.000    
        1.000       1.000       1.000       1.000       1.000    
   2   4.6000E-05  4.8000E-05  5.0000E-05  5.4000E-05  5.6000E-05  6.0000E-05  6.6000E-05   1.000       1.000       1.000    
        1.000       1.000       1.000       1.000       1.000       1.000       1.000       1.000       1.000       1.000    
        1.000       1.000       1.000       1.000       1.000       1.000      8.2000E-05  7.8000E-05  7.6000E-05  7.2000E-05
       7.0000E-05  6.8000E-05  6.6000E-05  6.4000E-05  6.2000E-05
   3    1.000       1.000       1.000       1.000       1.000       1.000       1.000       1.000      7.6000E-05  8.2000E-05
       8.8000E-05  9.4000E-05  1.0000E-04  1.0400E-04  1.0800E-04  1.1000E-04  1.1200E-04  1.1200E-04  1.1000E-04  1.0800E-04
       1.0400E-04  1.0000E-04  9.6000E-05  9.2000E-05  8.8000E-05  8.4000E-05  8.0000E-05  7.8000E-05  7.4000E-05  7.2000E-05
       6.8000E-05  6.6000E-05  6.4000E-05  6.2000E-05  6.0000E-05
   4   4.2000E-05  4.4000E-05  4.6000E-05  4.8000E-05  5.2000E-05  5.6000E-05  6.2000E-05  6.8000E-05  7.6000E-05  8.2000E-05
       9.0000E-05  9.6000E-05  1.0200E-04  1.0800E-04  1.1200E-04  1.1400E-04  1.1600E-04  1.1600E-04  1.1400E-04  1.1000E-04
       1.0600E-04  1.0000E-04  9.6000E-05  9.2000E-05  8.8000E-05  8.4000E-05  8.0000E-05  7.6000E-05  7.2000E-05  7.0000E-05
       6.6000E-05  6.4000E-05  6.2000E-05  6.0000E-05  5.8000E-05
   5   4.0000E-05  4.2000E-05  4.4000E-05  4.6000E-05  5.0000E-05  5.4000E-05  6.0000E-05  6.8000E-05  7.6000E-05  8.4000E-05
       9.2000E-05  9.8000E-05  1.0600E-04  1.1000E-04  1.1400E-04  1.1800E-04  1.2000E-04  1.2000E-04  1.1600E-04  1.1200E-04
       1.0600E-04  1.0200E-04  9.6000E-05  9.0000E-05  8.6000E-05  8.2000E-05  7.8000E-05  7.4000E-05  7.0000E-05  6.8000E-05
       6.4000E-05  6.2000E-05  6.0000E-05  5.8000E-05  5.6000E-05
   6   3.8000E-05  4.0000E-05  4.0000E-05  4.2000E-05  4.6000E-05  5.0000E-05  5.8000E-05  6.6000E-05  7.6000E-05  8.4000E-05
       9.4000E-05  1.0200E-04  1.0800E-04  1.1400E-04  1.1800E-04  1.2200E-04  1.2400E-04  1.2400E-04  1.1800E-04  1.1200E-04
       1.0600E-04  1.0000E-04  9.4000E-05  9.0000E-05  8.4000E-05  8.0000E-05  7.6000E-05  7.2000E-05  6.8000E-05  6.4000E-05
       6.2000E-05  6.0000E-05  5.8000E-05  5.6000E-05  5.4000E-05
   7   3.8000E-05  3.8000E-05  3.8000E-05  4.0000E-05  4.2000E-05  4.6000E-05  5.4000E-05  6.4000E-05  7.6000E-05  8.6000E-05
       9.6000E-05  1.0400E-04  1.1200E-04  1.1600E-04  1.2000E-04  1.2400E-04  1.2600E-04  1.2400E-04  1.1800E-04  1.1200E-04
       1.0600E-04  1.0000E-04  9.4000E-05  8.8000E-05  8.2000E-05  7.6000E-05  7.2000E-05  6.8000E-05  6.4000E-05  6.2000E-05
       6.0000E-05  5.6000E-05  5.4000E-05  5.4000E-05  5.2000E-05
   8   3.6000E-05  3.6000E-05  3.6000E-05  3.6000E-05  3.8000E-05  4.2000E-05  5.0000E-05  6.4000E-05  7.8000E-05  9.0000E-05
       1.0000E-04  1.0800E-04  1.1400E-04  1.2000E-04  1.2200E-04  1.2400E-04  1.2400E-04  1.2000E-04  1.1600E-04  1.1000E-04
       1.0400E-04  9.6000E-05  9.0000E-05  8.4000E-05  7.8000E-05  7.4000E-05  6.8000E-05  6.4000E-05  6.2000E-05  5.8000E-05
       5.6000E-05  5.4000E-05  5.2000E-05  5.0000E-05  5.0000E-05
   9   3.8000E-05  3.6000E-05  3.6000E-05  3.6000E-05  3.4000E-05  3.6000E-05  4.8000E-05  6.4000E-05  8.0000E-05  9.4000E-05
       1.0600E-04  1.1400E-04  1.1800E-04  1.2200E-04  1.2400E-04  1.2400E-04  1.2200E-04  1.1800E-04  1.1400E-04  1.0800E-04
       1.0000E-04  9.4000E-05  8.8000E-05  8.2000E-05  7.6000E-05  7.0000E-05  6.6000E-05  6.0000E-05  5.8000E-05  5.4000E-05
       5.2000E-05  5.0000E-05  5.0000E-05  4.8000E-05  4.6000E-05
  10   3.8000E-05  3.8000E-05  3.8000E-05  3.6000E-05  3.4000E-05  3.0000E-05  4.6000E-05  6.8000E-05  8.8000E-05  1.0200E-04
       1.1400E-04  1.2000E-04  1.2400E-04  1.2400E-04  1.2400E-04  1.2200E-04  1.2000E-04  1.1600E-04  1.1000E-04  1.0400E-04
       9.8000E-05  9.0000E-05  8.4000E-05  7.6000E-05  7.0000E-05  6.6000E-05  6.0000E-05  5.6000E-05  5.4000E-05  5.0000E-05
       4.8000E-05  4.8000E-05  4.6000E-05  4.6000E-05  4.4000E-05
  11   4.0000E-05  4.2000E-05  4.2000E-05  4.4000E-05  4.4000E-05  4.6000E-05  5.8000E-05  7.8000E-05  9.8000E-05  1.1400E-04
       1.2400E-04  1.2800E-04  1.2800E-04  1.2600E-04  1.2400E-04  1.2000E-04  1.1600E-04  1.1200E-04  1.0600E-04  1.0000E-04
       9.4000E-05  8.6000E-05  8.0000E-05  7.2000E-05  6.6000E-05  6.0000E-05  5.6000E-05  5.2000E-05  4.8000E-05  4.6000E-05
       4.4000E-05  4.4000E-05  4.2000E-05  4.2000E-05  4.2000E-05
  12   4.4000E-05  4.6000E-05  4.8000E-05  5.2000E-05  6.0000E-05  6.8000E-05  7.8000E-05  9.2000E-05  1.1000E-04  1.2600E-04
       1.3400E-04  1.3400E-04  1.3200E-04  1.2800E-04  1.2400E-04  1.1800E-04  1.1400E-04  1.0800E-04  1.0200E-04  9.6000E-05
       8.8000E-05  8.2000E-05  7.4000E-05  6.8000E-05  6.0000E-05  5.4000E-05  5.0000E-05  4.6000E-05  4.4000E-05  4.2000E-05
       4.0000E-05  4.0000E-05  4.0000E-05  4.0000E-05  4.0000E-05
  13   4.6000E-05  5.0000E-05  5.4000E-05  6.0000E-05  7.2000E-05  8.6000E-05  9.0000E-05  1.0200E-04  1.1800E-04  1.3800E-04
       1.4600E-04  1.3800E-04  1.3200E-04  1.2600E-04  1.2200E-04  1.1600E-04  1.1000E-04  1.0400E-04  9.8000E-05  9.2000E-05
       8.4000E-05  7.6000E-05  7.0000E-05  6.2000E-05  5.6000E-05  4.8000E-05  4.4000E-05  4.0000E-05  3.8000E-05  3.8000E-05
       3.6000E-05  3.6000E-05  3.6000E-05  3.6000E-05  3.6000E-05
  14   4.8000E-05  5.2000E-05  5.6000E-05  6.4000E-05  7.4000E-05  8.4000E-05  9.2000E-05  1.0400E-04  1.1800E-04  1.3200E-04
       1.3800E-04  1.3400E-04  1.2800E-04  1.2200E-04  1.1600E-04  1.1200E-04  1.0600E-04  1.0000E-04  9.4000E-05  8.6000E-05
       8.0000E-05  7.2000E-05  6.4000E-05  5.8000E-05  5.0000E-05  4.2000E-05  3.8000E-05  3.4000E-05  3.4000E-05  3.4000E-05
       3.4000E-05  3.4000E-05  3.4000E-05  3.4000E-05  3.4000E-05
  15   4.8000E-05  5.2000E-05  5.8000E-05  6.4000E-05  7.2000E-05  8.0000E-05  8.8000E-05  9.6000E-05  1.0800E-04  1.1800E-04
       1.2200E-04  1.2200E-04  1.2000E-04  1.1600E-04  1.1000E-04  1.0600E-04  1.0000E-04  9.4000E-05  8.8000E-05  8.2000E-05
       7.6000E-05  6.8000E-05  6.0000E-05  5.2000E-05  4.4000E-05  3.6000E-05  3.0000E-05  2.8000E-05  2.8000E-05  3.0000E-05
       3.0000E-05  3.2000E-05  3.2000E-05  3.2000E-05  3.4000E-05
  16   4.8000E-05  5.2000E-05  5.6000E-05  6.2000E-05  6.8000E-05  7.2000E-05  7.8000E-05  8.6000E-05  9.2000E-05  1.0200E-04
       1.0800E-04  1.1000E-04  1.0800E-04  1.0600E-04  1.0400E-04  1.0000E-04  9.4000E-05  9.0000E-05  8.4000E-05  7.8000E-05
       7.2000E-05  6.4000E-05  5.6000E-05  5.0000E-05  4.2000E-05  3.2000E-05  2.4000E-05  2.4000E-05  2.6000E-05  2.8000E-05
       2.8000E-05  3.0000E-05  3.0000E-05  3.0000E-05  3.2000E-05
  17   4.8000E-05  5.0000E-05  5.4000E-05  5.8000E-05  6.2000E-05  6.6000E-05  6.8000E-05  7.2000E-05  7.8000E-05  8.6000E-05
       9.2000E-05  9.6000E-05  9.8000E-05  9.8000E-05  9.6000E-05  9.2000E-05  8.8000E-05  8.4000E-05  8.0000E-05  7.4000E-05
       6.8000E-05  6.2000E-05  5.4000E-05  4.6000E-05  4.0000E-05  3.2000E-05  2.6000E-05  2.4000E-05  2.6000E-05  2.6000E-05
       2.8000E-05  2.8000E-05  3.0000E-05  3.0000E-05  3.0000E-05
  18   4.6000E-05  4.8000E-05  5.2000E-05  5.4000E-05  5.6000E-05  5.8000E-05  5.8000E-05  5.8000E-05  6.2000E-05  7.2000E-05
       8.0000E-05  8.6000E-05  8.8000E-05  8.8000E-05  8.8000E-05  8.6000E-05  8.2000E-05  8.0000E-05  7.4000E-05  7.0000E-05
       6.4000E-05  5.8000E-05  5.2000E-05  4.6000E-05  4.0000E-05  3.4000E-05  2.8000E-05  2.6000E-05  2.6000E-05  2.6000E-05
       2.8000E-05  2.8000E-05  2.8000E-05  3.0000E-05  3.0000E-05
  19   4.4000E-05  4.6000E-05  4.8000E-05  5.0000E-05  5.2000E-05  5.2000E-05  5.4000E-05  5.2000E-05  5.6000E-05  6.4000E-05
       7.0000E-05  7.6000E-05  8.0000E-05  8.0000E-05  8.0000E-05  8.0000E-05  7.8000E-05  7.4000E-05  7.0000E-05  6.6000E-05
       6.2000E-05  5.6000E-05  5.0000E-05  4.6000E-05  4.0000E-05  3.4000E-05  3.0000E-05  2.8000E-05  2.8000E-05  2.8000E-05
       2.8000E-05  2.8000E-05  2.8000E-05  2.8000E-05  3.0000E-05
  20   4.4000E-05  4.6000E-05  4.6000E-05  4.8000E-05  4.8000E-05  5.0000E-05  5.0000E-05  5.2000E-05  5.4000E-05  6.0000E-05
       6.4000E-05  6.8000E-05  7.2000E-05  7.4000E-05  7.4000E-05  7.4000E-05  7.2000E-05  7.0000E-05  6.6000E-05  6.4000E-05
       6.0000E-05  5.4000E-05  5.0000E-05  4.6000E-05  4.0000E-05  3.6000E-05  3.2000E-05  3.0000E-05  2.8000E-05  2.8000E-05
       2.8000E-05  2.8000E-05  2.8000E-05  2.8000E-05  2.8000E-05
  21   4.2000E-05  4.4000E-05  4.4000E-05  4.6000E-05  4.6000E-05  4.8000E-05  4.8000E-05  5.0000E-05  5.2000E-05  5.6000E-05
       6.0000E-05  6.4000E-05  6.6000E-05  6.8000E-05  6.8000E-05  6.8000E-05  6.8000E-05  6.6000E-05  6.2000E-05  6.0000E-05
       5.6000E-05  5.4000E-05  5.0000E-05  4.6000E-05  4.0000E-05  3.6000E-05  3.4000E-05  3.2000E-05  3.0000E-05  2.8000E-05
       2.8000E-05  2.8000E-05  2.8000E-05  2.8000E-05  2.8000E-05
  22   4.0000E-05  4.2000E-05  4.2000E-05  4.4000E-05  4.4000E-05  4.6000E-05  4.6000E-05  4.8000E-05  5.0000E-05  5.4000E-05
       5.6000E-05  6.0000E-05  6.2000E-05  6.2000E-05  6.4000E-05  6.4000E-05  6.2000E-05  6.2000E-05  6.0000E-05  5.8000E-05
       5.4000E-05  5.2000E-05  5.0000E-05  4.6000E-05  4.2000E-05  3.8000E-05  3.4000E-05  3.2000E-05  3.0000E-05  3.0000E-05
       2.8000E-05  2.8000E-05  2.8000E-05  2.8000E-05  2.8000E-05
  23   4.0000E-05  4.0000E-05  4.2000E-05  4.2000E-05  4.4000E-05  4.4000E-05  4.6000E-05  4.6000E-05  4.8000E-05  5.0000E-05
       5.4000E-05  5.6000E-05  5.8000E-05  5.8000E-05  6.0000E-05  6.0000E-05  6.0000E-05  5.8000E-05  5.6000E-05  5.4000E-05
       5.2000E-05  5.0000E-05  4.8000E-05  4.4000E-05  4.0000E-05  3.8000E-05  3.6000E-05  3.4000E-05  3.2000E-05  3.0000E-05
       3.0000E-05  2.8000E-05  2.8000E-05  2.8000E-05  2.8000E-05
  24   3.8000E-05  4.0000E-05  4.0000E-05  4.2000E-05  4.2000E-05  4.2000E-05  4.4000E-05  4.6000E-05  4.8000E-05  4.8000E-05
       5.0000E-05  5.2000E-05  5.4000E-05  5.6000E-05  5.6000E-05  5.6000E-05  5.6000E-05  5.4000E-05  5.4000E-05  5.2000E-05
       5.0000E-05  4.8000E-05  4.6000E-05  4.4000E-05  4.0000E-05  3.8000E-05  3.6000E-05  3.4000E-05  3.2000E-05  3.0000E-05
       3.0000E-05  3.0000E-05  2.8000E-05  2.8000E-05  2.8000E-05
  25   3.8000E-05  3.8000E-05  4.0000E-05  4.0000E-05  4.0000E-05  4.2000E-05  4.2000E-05  4.4000E-05  4.6000E-05  4.6000E-05
       4.8000E-05  5.0000E-05  5.2000E-05  5.2000E-05  5.2000E-05  5.2000E-05  5.2000E-05  5.2000E-05  5.0000E-05  5.0000E-05
       4.8000E-05  4.6000E-05  4.4000E-05  4.2000E-05  4.0000E-05  3.8000E-05  3.6000E-05  3.4000E-05  3.2000E-05  3.0000E-05
       3.0000E-05  3.0000E-05  2.8000E-05  2.8000E-05  2.8000E-05
  26   3.6000E-05  3.8000E-05  3.8000E-05  3.8000E-05  4.0000E-05  4.0000E-05  4.2000E-05  4.2000E-05  4.4000E-05  4.6000E-05
       4.6000E-05  4.8000E-05  4.8000E-05  5.0000E-05  5.0000E-05  5.0000E-05  5.0000E-05  5.0000E-05  4.8000E-05  4.8000E-05
       4.6000E-05  4.4000E-05  4.2000E-05  4.0000E-05  3.8000E-05  3.6000E-05  3.6000E-05  3.4000E-05  3.2000E-05  3.0000E-05
       3.0000E-05  3.0000E-05  2.8000E-05  2.8000E-05  2.8000E-05
  27   3.6000E-05  3.6000E-05  3.8000E-05  3.8000E-05  3.8000E-05  4.0000E-05  4.0000E-05  4.2000E-05  4.2000E-05  4.4000E-05
       4.4000E-05  4.6000E-05  4.6000E-05  4.8000E-05  4.8000E-05  4.8000E-05  4.8000E-05  4.6000E-05  4.6000E-05  4.6000E-05
       4.4000E-05  4.2000E-05  4.2000E-05  4.0000E-05  3.8000E-05  3.6000E-05  3.4000E-05  3.4000E-05  3.2000E-05  3.0000E-05
       3.0000E-05  3.0000E-05  2.8000E-05  2.8000E-05  2.8000E-05
  28   3.6000E-05  3.6000E-05  3.6000E-05  3.8000E-05  3.8000E-05  3.8000E-05  4.0000E-05  4.0000E-05  4.2000E-05  4.2000E-05
       4.2000E-05  4.4000E-05  4.4000E-05  4.4000E-05  4.6000E-05  4.6000E-05  4.6000E-05  4.4000E-05  4.4000E-05  4.4000E-05
       4.2000E-05  4.2000E-05  4.0000E-05  3.8000E-05  3.8000E-05  3.6000E-05  3.4000E-05  3.4000E-05  3.2000E-05  3.0000E-05
       3.0000E-05  3.0000E-05  2.8000E-05  2.8000E-05  2.8000E-05
  29   3.4000E-05  3.6000E-05  3.6000E-05  3.6000E-05  3.6000E-05  3.8000E-05  3.8000E-05  4.0000E-05  4.0000E-05  4.0000E-05
       4.2000E-05  4.2000E-05  4.2000E-05  4.4000E-05  4.4000E-05  4.4000E-05  4.4000E-05  4.2000E-05  4.2000E-05  4.2000E-05
       4.0000E-05  4.0000E-05  3.8000E-05  3.8000E-05  3.6000E-05  3.6000E-05  3.4000E-05  3.2000E-05  3.2000E-05  3.0000E-05
       3.0000E-05  3.0000E-05  2.8000E-05  2.8000E-05  2.8000E-05
  30   3.4000E-05  3.4000E-05  3.4000E-05  3.6000E-05  3.6000E-05  3.6000E-05  3.8000E-05  3.8000E-05  3.8000E-05  4.0000E-05
       4.0000E-05  4.0000E-05  4.2000E-05  4.2000E-05  4.2000E-05  4.2000E-05  4.2000E-05  4.2000E-05  4.0000E-05  4.0000E-05
       4.0000E-05  3.8000E-05  3.8000E-05  3.6000E-05  3.6000E-05  3.4000E-05  3.4000E-05  3.2000E-05  3.2000E-05  3.0000E-05
       3.0000E-05  3.0000E-05  2.8000E-05  2.8000E-05  2.8000E-05
  31   3.4000E-05  3.4000E-05  3.4000E-05  3.4000E-05  3.6000E-05  3.6000E-05  3.6000E-05  3.8000E-05  3.8000E-05  3.8000E-05
       3.8000E-05  4.0000E-05  4.0000E-05  4.0000E-05  4.0000E-05  4.0000E-05  4.0000E-05  4.0000E-05  4.0000E-05  3.8000E-05
       3.8000E-05  3.8000E-05  3.6000E-05  3.6000E-05  3.4000E-05  3.4000E-05  3.2000E-05  3.2000E-05  3.0000E-05  3.0000E-05
       3.0000E-05  2.8000E-05  2.8000E-05  2.8000E-05  2.8000E-05
  32   3.2000E-05  3.4000E-05  3.4000E-05  3.4000E-05  3.4000E-05  3.6000E-05  3.6000E-05  3.6000E-05  3.6000E-05  3.8000E-05
       3.8000E-05  3.8000E-05  3.8000E-05  3.8000E-05  3.8000E-05  3.8000E-05  3.8000E-05  3.8000E-05  3.8000E-05  3.8000E-05
       3.6000E-05  3.6000E-05  3.6000E-05  3.4000E-05  3.4000E-05  3.2000E-05  3.2000E-05  3.2000E-05  3.0000E-05  3.0000E-05
       3.0000E-05  2.8000E-05  2.8000E-05  2.8000E-05  2.8000E-05
  33   3.2000E-05  3.2000E-05  3.2000E-05  3.4000E-05  3.4000E-05  3.4000E-05  3.4000E-05  3.6000E-05  3.6000E-05  3.6000E-05
       3.6000E-05  3.6000E-05  3.8000E-05  3.8000E-05  3.8000E-05  3.8000E-05  3.8000E-05  3.6000E-05  3.6000E-05  3.6000E-05
       3.6000E-05  3.6000E-05  3.4000E-05  3.4000E-05  3.4000E-05  3.2000E-05  3.2000E-05  3.0000E-05  3.0000E-05  3.0000E-05
       2.8000E-05  2.8000E-05  2.8000E-05  2.8000E-05  2.8000E-05
  34   3.2000E-05  3.2000E-05  3.2000E-05  3.2000E-05  3.4000E-05  3.4000E-05  3.4000E-05  3.4000E-05  3.4000E-05  3.6000E-05
       3.6000E-05  3.6000E-05  3.6000E-05  3.6000E-05  3.6000E-05  3.6000E-05  3.6000E-05  3.6000E-05  3.6000E-05  3.6000E-05
       3.4000E-05  3.4000E-05  3.4000E-05  3.2000E-05  3.2000E-05  3.2000E-05  3.2000E-05  3.0000E-05  3.0000E-05  3.0000E-05
       2.8000E-05  2.8000E-05  2.8000E-05  2.8000E-05  2.8000E-05
  35   3.0000E-05  3.2000E-05  3.2000E-05  3.2000E-05  3.2000E-05  3.2000E-05  3.4000E-05  3.4000E-05  3.4000E-05  3.4000E-05
       3.4000E-05  3.4000E-05  3.4000E-05  3.4000E-05  3.4000E-05  3.4000E-05  3.4000E-05  3.4000E-05  3.4000E-05  3.4000E-05
       3.4000E-05  3.4000E-05  3.2000E-05  3.2000E-05  3.2000E-05  3.2000E-05  3.0000E-05  3.0000E-05  3.0000E-05  2.8000E-05
       2.8000E-05  2.8000E-05  2.8000E-05   1.000      2.6000E-05
  36   3.0000E-05  3.0000E-05  3.0000E-05  3.2000E-05  3.2000E-05  3.2000E-05  3.2000E-05  3.2000E-05  3.2000E-05  3.4000E-05
       3.4000E-05  3.4000E-05  3.4000E-05  3.4000E-05  3.4000E-05  3.4000E-05  3.4000E-05  3.4000E-05  3.4000E-05  3.4000E-05
       3.2000E-05  3.2000E-05  3.2000E-05  3.2000E-05  3.2000E-05  3.0000E-05  3.0000E-05  3.0000E-05  2.8000E-05  2.8000E-05
       2.8000E-05   1.000       1.000       1.000       1.000    
  37   3.0000E-05  3.0000E-05  3.0000E-05  3.0000E-05  3.2000E-05  3.2000E-05  3.2000E-05  3.2000E-05  3.2000E-05  3.2000E-05
       3.2000E-05  3.2000E-05  3.2000E-05  3.2000E-05  3.4000E-05  3.2000E-05  3.2000E-05  3.2000E-05  3.2000E-05  3.2000E-05
       3.2000E-05  3.2000E-05  3.2000E-05  3.0000E-05  3.0000E-05  3.0000E-05  3.0000E-05  3.0000E-05  2.8000E-05  2.8000E-05
        1.000       1.000      2.8000E-05  2.6000E-05  2.6000E-05
  38   3.0000E-05  3.0000E-05  3.0000E-05  3.0000E-05  3.0000E-05  3.0000E-05  3.0000E-05  3.2000E-05  3.2000E-05  3.2000E-05
       3.2000E-05  3.2000E-05  3.2000E-05  3.2000E-05  3.2000E-05  3.2000E-05  3.2000E-05  3.2000E-05  3.2000E-05  3.2000E-05
       3.2000E-05  3.0000E-05  3.0000E-05  3.0000E-05  3.0000E-05  3.0000E-05  2.8000E-05  2.8000E-05  2.8000E-05   1.000    
        1.000      2.8000E-05  2.6000E-05  2.6000E-05  2.6000E-05
  39   2.8000E-05  3.0000E-05  3.0000E-05  3.0000E-05  3.0000E-05  3.0000E-05  3.0000E-05  3.0000E-05  3.0000E-05  3.0000E-05
       3.2000E-05  3.2000E-05  3.2000E-05  3.2000E-05  3.2000E-05  3.2000E-05  3.2000E-05  3.2000E-05  3.0000E-05  3.0000E-05
       3.0000E-05  3.0000E-05  3.0000E-05  3.0000E-05  3.0000E-05  2.8000E-05  2.8000E-05  2.8000E-05   1.000       1.000    
       2.8000E-05  2.6000E-05  2.6000E-05  2.6000E-05  2.6000E-05
  40   2.8000E-05  2.8000E-05  2.8000E-05  3.0000E-05  3.0000E-05  3.0000E-05  3.0000E-05  3.0000E-05  3.0000E-05  3.0000E-05
       3.0000E-05  3.0000E-05  3.0000E-05  3.0000E-05  3.0000E-05  3.0000E-05  3.0000E-05  3.0000E-05  3.0000E-05  3.0000E-05
       3.0000E-05  3.0000E-05  3.0000E-05  2.8000E-05  2.8000E-05  2.8000E-05   1.000       1.000       1.000      2.8000E-05
       2.6000E-05  2.6000E-05  2.6000E-05  2.6000E-05  2.6000E-05
  41   2.8000E-05  2.8000E-05  2.8000E-05  2.8000E-05  2.8000E-05  2.8000E-05  3.0000E-05  3.0000E-05  3.0000E-05  3.0000E-05
       3.0000E-05  3.0000E-05  3.0000E-05  3.0000E-05  3.0000E-05  3.0000E-05  3.0000E-05  3.0000E-05  3.0000E-05  3.0000E-05
       3.0000E-05   1.000       1.000       1.000       1.000       1.000       1.000      2.8000E-05  2.6000E-05  2.6000E-05
       2.6000E-05  2.6000E-05  2.6000E-05  2.6000E-05  2.6000E-05
  42   2.8000E-05  2.8000E-05  2.8000E-05  2.8000E-05  2.8000E-05  2.8000E-05  2.8000E-05  2.8000E-05  2.8000E-05  2.8000E-05
       3.0000E-05  3.0000E-05  3.0000E-05  3.0000E-05   1.000       1.000       1.000       1.000       1.000       1.000    
        1.000       1.000      2.8000E-05  2.8000E-05  2.8000E-05  2.8000E-05  2.8000E-05  2.6000E-05  2.6000E-05  2.6000E-05
       2.6000E-05  2.6000E-05  2.6000E-05  2.6000E-05  2.6000E-05
  43   2.6000E-05  2.8000E-05  2.8000E-05  2.8000E-05  2.8000E-05  2.8000E-05  2.8000E-05  2.8000E-05  2.8000E-05   1.000    
        1.000       1.000       1.000       1.000       1.000      2.8000E-05  2.8000E-05   1.000      2.8000E-05  2.8000E-05
       2.8000E-05  2.8000E-05  2.8000E-05  2.8000E-05  2.8000E-05  2.6000E-05  2.6000E-05  2.6000E-05  2.6000E-05  2.6000E-05
       2.6000E-05  2.6000E-05  2.6000E-05  2.6000E-05  2.6000E-05
  44   2.6000E-05  2.6000E-05   1.000       1.000       1.000       1.000       1.000       1.000       1.000       1.000    
       2.8000E-05  2.8000E-05  2.8000E-05  2.8000E-05  2.8000E-05  2.8000E-05  2.8000E-05  2.8000E-05  2.8000E-05  2.8000E-05
       2.8000E-05  2.8000E-05  2.8000E-05  2.6000E-05  2.6000E-05  2.6000E-05  2.6000E-05  2.6000E-05  2.6000E-05  2.6000E-05
       2.6000E-05  2.6000E-05  2.6000E-05  2.4000E-05  2.4000E-05
  45    1.000       1.000       1.000      2.6000E-05  2.6000E-05  2.6000E-05  2.8000E-05  2.8000E-05  2.8000E-05  2.8000E-05
       2.8000E-05  2.8000E-05  2.8000E-05  2.8000E-05  2.8000E-05  2.8000E-05  2.8000E-05  2.8000E-05  2.8000E-05  2.8000E-05
       2.8000E-05  2.6000E-05  2.6000E-05  2.6000E-05  2.6000E-05  2.6000E-05  2.6000E-05  2.6000E-05  2.6000E-05  2.6000E-05
       2.6000E-05  2.6000E-05  2.4000E-05  2.4000E-05  2.4000E-05

         SPECIFIC STORAGE =  1.000000E-05 FOR LAYER   2

           SPECIFIC YIELD =  0.200000     FOR LAYER   2



                   WETDRY PARAMETER FOR LAYER   2
 READING ON UNIT   14 WITH FORMAT: (FREE)              

            1           2           3           4           5           6           7           8           9          10
           11          12          13          14          15          16          17          18          19          20
           21          22          23          24          25          26          27          28          29          30
           31          32          33          34          35
 ........................................................................................................................
   1   0.3360      0.3360      0.3360      0.3366      0.3377      0.3388      0.3399      0.3410      0.3422      0.3433    
       0.3444      0.3455      0.3466      0.3477      0.3488      0.3499      0.3500      0.3500      0.3500      0.3500    
       0.3500      0.3500      0.3509      0.3526      0.3543      0.3560      0.3577      0.3594      0.3611      0.3628    
       0.3645      0.3663      0.3680      0.3697      0.3713    
   2   0.3360      0.3360      0.3360      0.3362      0.3373      0.3384      0.3396      0.3407      0.3418      0.3429    
       0.3440      0.3451      0.3462      0.3473      0.3485      0.3496      0.3500      0.3500      0.3500      0.3500    
       0.3500      0.3507      0.3524      0.3542      0.3559      0.3576      0.3593      0.3610      0.3627      0.3644    
       0.3661      0.3678      0.3695      0.3712      0.3728    
   3   0.3360      0.3360      0.3360      0.3360      0.3369      0.3381      0.3392      0.3403      0.3414      0.3425    
       0.3436      0.3447      0.3458      0.3470      0.3481      0.3492      0.3500      0.3500      0.3500      0.3500    
       0.3506      0.3523      0.3540      0.3557      0.3574      0.3591      0.3608      0.3625      0.3642      0.3659    
       0.3676      0.3693      0.3710      0.3727      0.3744    
   4   0.3360      0.3360      0.3360      0.3360      0.3366      0.3377      0.3388      0.3399      0.3410      0.3421    
       0.3432      0.3443      0.3455      0.3466      0.3477      0.3488      0.3499      0.3500      0.3500      0.3504    
       0.3521      0.3538      0.3555      0.3572      0.3589      0.3606      0.3623      0.3640      0.3657      0.3674    
       0.3691      0.3708      0.3725      0.3742      0.3759    
   5   0.3360      0.3360      0.3360      0.3360      0.3362      0.3373      0.3384      0.3395      0.3406      0.3417    
       0.3429      0.3440      0.3451      0.3462      0.3473      0.3484      0.3495      0.3500      0.3502      0.3519    
       0.3536      0.3553      0.3570      0.3587      0.3604      0.3621      0.3639      0.3656      0.3673      0.3690    
       0.3707      0.3724      0.3741      0.3758      0.3774    
   6   0.3360      0.3360      0.3360      0.3360      0.3360      0.3369      0.3380      0.3391      0.3402      0.3414    
       0.3425      0.3436      0.3447      0.3458      0.3469      0.3480      0.3491      0.3501      0.3518      0.3535    
       0.3552      0.3569      0.3586      0.3603      0.3620      0.3637      0.3654      0.3671      0.3688      0.3705    
       0.3722      0.3739      0.3756      0.3773      0.3790    
   7   0.3360      0.3360      0.3360      0.3360      0.3360      0.3365      0.3376      0.3387      0.3399      0.3410    
       0.3421      0.3432      0.3443      0.3454      0.3465      0.3489      0.3520      0.3532      0.3533      0.3550    
       0.3567      0.3584      0.3601      0.3618      0.3635      0.3652      0.3669      0.3686      0.3703      0.3720    
       0.3737      0.3754      0.3771      0.3788      0.3805    
   8   0.3360      0.3360      0.3360      0.3360      0.3360      0.3361      0.3373      0.3384      0.3395      0.3406    
       0.3417      0.3428      0.3450      0.3481      0.3513      0.3543      0.3556      0.3568      0.3580      0.3565    
       0.3582      0.3599      0.3616      0.3633      0.3650      0.3667      0.3684      0.3701      0.3719      0.3736    
       0.3753      0.3770      0.3787      0.3804      0.3820    
   9   0.3360      0.3360      0.3360      0.3360      0.3360      0.3360      0.3369      0.3380      0.3391      0.3410    
       0.3442      0.3474      0.3505      0.3537      0.3567      0.3579      0.3591      0.3604      0.3616      0.3628    
       0.3598      0.3615      0.3632      0.3649      0.3666      0.3683      0.3700      0.3717      0.3734      0.3751    
       0.3768      0.3785      0.3802      0.3819      0.3836    
  10   0.3429      0.3416      0.3403      0.3390      0.3377      0.3364      0.3371      0.3403      0.3434      0.3466    
       0.3497      0.3529      0.3560      0.3590      0.3603      0.3615      0.3627      0.3639      0.3652      0.3664    
       0.3676      0.3644      0.3647      0.3664      0.3681      0.3698      0.3715      0.3732      0.3749      0.3766    
       0.3783      0.3800      0.3817      0.3834      0.3851    
  11   0.3537      0.3524      0.3511      0.3498      0.3485      0.3472      0.3463      0.3458      0.3490      0.3521    
       0.3553      0.3584      0.3614      0.3626      0.3638      0.3651      0.3663      0.3675      0.3687      0.3700    
       0.3712      0.3724      0.3694      0.3679      0.3696      0.3713      0.3730      0.3747      0.3764      0.3781    
       0.3799      0.3816      0.3833      0.3850      0.3866    
  12   0.3646      0.3633      0.3620      0.3607      0.3594      0.3581      0.3572      0.3565      0.3559      0.3577    
       0.3608      0.3637      0.3650      0.3662      0.3674      0.3686      0.3699      0.3711      0.3723      0.3735    
       0.3748      0.3760      0.3772      0.3743      0.3712      0.3729      0.3746      0.3763      0.3780      0.3797    
       0.3814      0.3831      0.3848      0.3865      0.3881    
  13   0.3660      0.3660      0.3660      0.3660      0.3660      0.3640      0.3613      0.3628      0.3642      0.3657    
       0.3661      0.3673      0.3685      0.3698      0.3710      0.3722      0.3734      0.3747      0.3759      0.3771    
       0.3783      0.3796      0.3808      0.3820      0.3792      0.3744      0.3761      0.3778      0.3795      0.3812    
       0.3829      0.3846      0.3863      0.3880      0.3897    
  14   0.3660      0.3660      0.3660      0.3647      0.3551      0.3456      0.3372      0.3387      0.3401      0.3416    
       0.3465      0.3546      0.3597      0.3642      0.3687      0.3732      0.3770      0.3782      0.3795      0.3807    
       0.3819      0.3831      0.3844      0.3856      0.3868      0.3841      0.3776      0.3793      0.3810      0.3827    
       0.3844      0.3861      0.3878      0.3896      0.3912    
  15   0.3660      0.3654      0.3558      0.3463      0.3367      0.3272      0.3176      0.3145      0.3160      0.3174    
       0.3249      0.3329      0.3410      0.3475      0.3520      0.3565      0.3610      0.3655      0.3700      0.3745    
       0.3790      0.3835      0.3879      0.3892      0.3904      0.3916      0.3890      0.3809      0.3826      0.3843    
       0.3860      0.3877      0.3894      0.3911      0.3927    
  16   0.3565      0.3470      0.3374      0.3279      0.3183      0.3087      0.2992      0.2904      0.2918      0.2952    
       0.3033      0.3113      0.3193      0.3274      0.3354      0.3399      0.3444      0.3488      0.3533      0.3578    
       0.3623      0.3668      0.3713      0.3758      0.3803      0.3848      0.3893      0.3940      0.3841      0.3858    
       0.3875      0.3892      0.3909      0.3926      0.3943    
  17   0.3381      0.3286      0.3190      0.3094      0.2999      0.2903      0.2808      0.2712      0.2677      0.2736    
       0.2816      0.2897      0.2977      0.3057      0.3138      0.3218      0.3277      0.3322      0.3367      0.3412    
       0.3457      0.3502      0.3547      0.3591      0.3636      0.3681      0.3747      0.3843      0.3939      0.3873    
       0.3890      0.3907      0.3924      0.3941      0.3958    
  18   0.3197      0.3101      0.3006      0.2910      0.2815      0.2719      0.2623      0.2528      0.2441      0.2519    
       0.2600      0.2680      0.2761      0.2841      0.2921      0.3002      0.3082      0.3155      0.3200      0.3245    
       0.3290      0.3335      0.3380      0.3425      0.3470      0.3518      0.3615      0.3711      0.3807      0.3903    
       0.3906      0.3923      0.3940      0.3957      0.3960    
  19   0.3013      0.2917      0.2822      0.2726      0.2630      0.2535      0.2440      0.2440      0.2446      0.2466    
       0.2485      0.2505      0.2544      0.2625      0.2705      0.2785      0.2866      0.2946      0.3027      0.3078    
       0.3123      0.3168      0.3213      0.3258      0.3303      0.3386      0.3483      0.3579      0.3675      0.3771    
       0.3867      0.3955      0.3955      0.3960      0.3960    
  20   0.2828      0.2733      0.2637      0.2542      0.2446      0.2440      0.2440      0.2440      0.2452      0.2471    
       0.2491      0.2510      0.2530      0.2549      0.2568      0.2588      0.2649      0.2730      0.2810      0.2891    
       0.2957      0.3002      0.3046      0.3091      0.3158      0.3254      0.3350      0.3447      0.3543      0.3639    
       0.3735      0.3855      0.3960      0.3960      0.3960    
  21   0.2644      0.2549      0.2453      0.2440      0.2440      0.2440      0.2440      0.2440      0.2457      0.2476    
       0.2496      0.2515      0.2535      0.2554      0.2574      0.2593      0.2613      0.2632      0.2652      0.2674    
       0.2755      0.2835      0.2880      0.2930      0.3026      0.3122      0.3218      0.3340      0.3461      0.3582    
       0.3703      0.3825      0.3946      0.3960      0.3960    
  22   0.2460      0.2440      0.2440      0.2440      0.2440      0.2440      0.2440      0.2443      0.2462      0.2482    
       0.2501      0.2521      0.2540      0.2560      0.2579      0.2599      0.2618      0.2638      0.2657      0.2677    
       0.2696      0.2716      0.2735      0.2825      0.2946      0.3067      0.3189      0.3310      0.3431      0.3552    
       0.3674      0.3795      0.3916      0.3960      0.3960    
  23   0.2440      0.2440      0.2440      0.2440      0.2440      0.2440      0.2440      0.2448      0.2468      0.2487    
       0.2507      0.2526      0.2546      0.2565      0.2585      0.2604      0.2623      0.2643      0.2662      0.2682    
       0.2701      0.2721      0.2740      0.2795      0.2916      0.3038      0.3159      0.3280      0.3401      0.3523    
       0.3644      0.3765      0.3886      0.3960      0.3960    
  24   0.2440      0.2440      0.2440      0.2440      0.2440      0.2440      0.2440      0.2454      0.2473      0.2493    
       0.2512      0.2531      0.2551      0.2570      0.2590      0.2609      0.2629      0.2648      0.2668      0.2687    
       0.2707      0.2726      0.2740      0.2765      0.2886      0.3008      0.3129      0.3250      0.3372      0.3493    
       0.3614      0.3735      0.3857      0.3960      0.3960    
  25   0.2440      0.2440      0.2440      0.2440      0.2440      0.2440      0.2440      0.2459      0.2478      0.2498    
       0.2517      0.2537      0.2556      0.2576      0.2595      0.2615      0.2634      0.2654      0.2673      0.2693    
       0.2712      0.2732      0.2740      0.2740      0.2857      0.2978      0.3099      0.3221      0.3342      0.3463    
       0.3584      0.3706      0.3827      0.3948      0.3960    
  26   0.2440      0.2440      0.2440      0.2440      0.2440      0.2440      0.2445      0.2464      0.2484      0.2503    
       0.2523      0.2542      0.2562      0.2581      0.2601      0.2620      0.2640      0.2659      0.2679      0.2698    
       0.2717      0.2737      0.2740      0.2740      0.2827      0.2948      0.3069      0.3191      0.3312      0.3433    
       0.3555      0.3676      0.3797      0.3918      0.3960    
  27   0.2440      0.2440      0.2440      0.2440      0.2440      0.2440      0.2450      0.2470      0.2489      0.2509    
       0.2528      0.2548      0.2567      0.2586      0.2606      0.2625      0.2645      0.2664      0.2684      0.2703    
       0.2723      0.2740      0.2740      0.2740      0.2797      0.2918      0.3040      0.3161      0.3282      0.3403    
       0.3525      0.3646      0.3767      0.3889      0.3960    
  28   0.2440      0.2440      0.2440      0.2440      0.2440      0.2440      0.2455      0.2475      0.2494      0.2514    
       0.2533      0.2553      0.2572      0.2592      0.2611      0.2631      0.2650      0.2670      0.2689      0.2709    
       0.2728      0.2740      0.2740      0.2740      0.2767      0.2889      0.3010      0.3131      0.3252      0.3374    
       0.3495      0.3616      0.3738      0.3859      0.3960    
  29   0.2440      0.2440      0.2440      0.2440      0.2440      0.2441      0.2461      0.2480      0.2500      0.2519    
       0.2539      0.2558      0.2578      0.2597      0.2617      0.2636      0.2656      0.2675      0.2695      0.2714    
       0.2734      0.2740      0.2740      0.2740      0.2740      0.2859      0.2980      0.3101      0.3223      0.3344    
       0.3465      0.3586      0.3708      0.3829      0.3947    
  30   0.2440      0.2440      0.2440      0.2440      0.2440      0.2447      0.2466      0.2486      0.2505      0.2525    
       0.2544      0.2564      0.2583      0.2603      0.2622      0.2641      0.2661      0.2680      0.2700      0.2719    
       0.2739      0.2740      0.2740      0.2740      0.2740      0.2829      0.2950      0.3072      0.3193      0.3314    
       0.3435      0.3557      0.3678      0.3799      0.3917    
  31   0.2440      0.2440      0.2440      0.2440      0.2440      0.2452      0.2472      0.2491      0.2510      0.2530    
       0.2549      0.2569      0.2588      0.2608      0.2627      0.2647      0.2666      0.2686      0.2705      0.2725    
       0.2740      0.2740      0.2740      0.2740      0.2740      0.2799      0.2921      0.3042      0.3163      0.3284    
       0.3406      0.3527      0.3648      0.3769      0.3887    
  32   0.2440      0.2440      0.2440      0.2440      0.2440      0.2457      0.2477      0.2496      0.2516      0.2535    
       0.2555      0.2574      0.2594      0.2613      0.2633      0.2652      0.2672      0.2691      0.2711      0.2730    
       0.2740      0.2740      0.2740      0.2740      0.2740      0.2769      0.2891      0.3012      0.3133      0.3255    
       0.3376      0.3497      0.3618      0.3740      0.3858    
  33   0.2440      0.2440      0.2440      0.2440      0.2443      0.2463      0.2482      0.2502      0.2521      0.2541    
       0.2560      0.2580      0.2599      0.2619      0.2638      0.2658      0.2677      0.2696      0.2716      0.2735    
       0.2740      0.2740      0.2740      0.2740      0.2740      0.2740      0.2861      0.2982      0.3104      0.3225    
       0.3346      0.3467      0.3589      0.3710      0.3828    
  34   0.2440      0.2440      0.2440      0.2440      0.2449      0.2468      0.2488      0.2507      0.2527      0.2546    
       0.2566      0.2585      0.2604      0.2624      0.2643      0.2663      0.2682      0.2702      0.2721      0.2740    
       0.2740      0.2740      0.2740      0.2740      0.2740      0.2740      0.2831      0.2952      0.3074      0.3195    
       0.3316      0.3438      0.3559      0.3680      0.3798    
  35   0.2440      0.2440      0.2440      0.2440      0.2454      0.2473      0.2493      0.2512      0.2532      0.2551    
       0.2571      0.2590      0.2610      0.2629      0.2649      0.2668      0.2688      0.2707      0.2727      0.2740    
       0.2740      0.2740      0.2740      0.2740      0.2740      0.2740      0.2801      0.2923      0.3044      0.3165    
       0.3286      0.3408      0.3529      0.3650      0.3768    
  36   0.2440      0.2440      0.2440      0.2440      0.2459      0.2479      0.2498      0.2518      0.2537      0.2557    
       0.2576      0.2596      0.2615      0.2635      0.2654      0.2674      0.2693      0.2713      0.2732      0.2740    
       0.2740      0.2740      0.2740      0.2740      0.2740      0.2740      0.2772      0.2893      0.3014      0.3135    
       0.3257      0.3378      0.3499      0.3621      0.3738    
  37   0.2440      0.2440      0.2440      0.2445      0.2465      0.2484      0.2504      0.2523      0.2543      0.2562    
       0.2582      0.2601      0.2621      0.2640      0.2659      0.2679      0.2698      0.2718      0.2737      0.2740    
       0.2740      0.2740      0.2740      0.2740      0.2740      0.2740      0.2742      0.2863      0.2984      0.3106    
       0.3227      0.3348      0.3469      0.3591      0.3709    
  38   0.2440      0.2440      0.2440      0.2451      0.2470      0.2490      0.2509      0.2528      0.2548      0.2567    
       0.2587      0.2606      0.2626      0.2645      0.2665      0.2684      0.2704      0.2723      0.2740      0.2740    
       0.2740      0.2740      0.2740      0.2740      0.2740      0.2740      0.2740      0.2833      0.2955      0.3076    
       0.3197      0.3318      0.3440      0.3561      0.3679    
  39   0.2440      0.2440      0.2440      0.2456      0.2475      0.2495      0.2514      0.2534      0.2553      0.2573    
       0.2592      0.2612      0.2631      0.2651      0.2670      0.2690      0.2709      0.2729      0.2740      0.2740    
       0.2740      0.2740      0.2740      0.2740      0.2740      0.2740      0.2740      0.2804      0.2925      0.3046    
       0.3167      0.3289      0.3410      0.3531      0.3649    
  40   0.2440      0.2440      0.2442      0.2461      0.2481      0.2500      0.2520      0.2539      0.2559      0.2578    
       0.2598      0.2617      0.2637      0.2656      0.2676      0.2695      0.2714      0.2734      0.2740      0.2740    
       0.2740      0.2740      0.2740      0.2740      0.2740      0.2740      0.2740      0.2774      0.2895      0.3016    
       0.3138      0.3259      0.3380      0.3501      0.3619    
  41   0.2440      0.2440      0.2447      0.2467      0.2486      0.2506      0.2525      0.2545      0.2564      0.2583    
       0.2603      0.2622      0.2642      0.2661      0.2681      0.2700      0.2720      0.2739      0.2740      0.2740    
       0.2740      0.2740      0.2740      0.2740      0.2740      0.2740      0.2740      0.2744      0.2865      0.2987    
       0.3108      0.3229      0.3350      0.3472      0.3590    
  42   0.2440      0.2440      0.2453      0.2472      0.2491      0.2511      0.2530      0.2550      0.2569      0.2589    
       0.2608      0.2628      0.2647      0.2667      0.2686      0.2706      0.2725      0.2740      0.2740      0.2740    
       0.2740      0.2740      0.2740      0.2740      0.2740      0.2740      0.2740      0.2740      0.2835      0.2957    
       0.3078      0.3199      0.3321      0.3442      0.3560    
  43   0.2440      0.2440      0.2458      0.2477      0.2497      0.2516      0.2536      0.2555      0.2575      0.2594    
       0.2614      0.2633      0.2653      0.2672      0.2692      0.2711      0.2731      0.2740      0.2740      0.2740    
       0.2740      0.2740      0.2740      0.2740      0.2740      0.2740      0.2740      0.2740      0.2806      0.2927    
       0.3048      0.3170      0.3291      0.3412      0.3530    
  44   0.2440      0.2444      0.2463      0.2483      0.2502      0.2522      0.2541      0.2561      0.2580      0.2600    
       0.2619      0.2638      0.2658      0.2677      0.2697      0.2716      0.2736      0.2740      0.2740      0.2740    
       0.2740      0.2740      0.2740      0.2740      0.2740      0.2740      0.2740      0.2740      0.2776      0.2897    
       0.3018      0.3140      0.3261      0.3382      0.3500    
  45   0.2440      0.2449      0.2469      0.2488      0.2508      0.2527      0.2546      0.2566      0.2585      0.2605    
       0.2624      0.2644      0.2663      0.2683      0.2702      0.2722      0.2740      0.2740      0.2740      0.2740    
       0.2740      0.2740      0.2740      0.2740      0.2740      0.2740      0.2740      0.2740      0.2746      0.2867    
       0.2989      0.3110      0.3231      0.3352      0.3470    



              HYD. COND. ALONG ROWS FOR LAYER   3
 READING ON UNIT   14 WITH FORMAT: (FREE)              

            1           2           3           4           5           6           7           8           9          10
           11          12          13          14          15          16          17          18          19          20
           21          22          23          24          25          26          27          28          29          30
           31          32          33          34          35
 ........................................................................................................................
   1   1.3000E-03  1.3000E-03  1.3000E-03  1.3000E-03  1.3000E-03  1.3000E-03  1.3000E-03  1.2000E-03  1.2000E-03  1.1000E-03
       1.0000E-03  9.0000E-04  8.0000E-04  7.0000E-04  6.0000E-04  5.0000E-04  4.0000E-04  4.0000E-04  3.0000E-04  3.0000E-04
       3.0000E-04  3.0000E-04  3.0000E-04  3.0000E-04  4.0000E-04  4.0000E-04  4.0000E-04  4.0000E-04  5.0000E-04  5.0000E-04
       5.0000E-04  6.0000E-04  6.0000E-04  6.0000E-04  6.0000E-04
   2   1.3000E-03  1.3000E-03  1.3000E-03  1.4000E-03  1.4000E-03  1.4000E-03  1.3000E-03  1.3000E-03  1.2000E-03  1.1000E-03
       1.1000E-03  9.0000E-04  8.0000E-04  7.0000E-04  6.0000E-04  5.0000E-04  4.0000E-04  4.0000E-04  3.0000E-04  3.0000E-04
       3.0000E-04  3.0000E-04  3.0000E-04  3.0000E-04  4.0000E-04  4.0000E-04  4.0000E-04  4.0000E-04  5.0000E-04  5.0000E-04
       5.0000E-04  6.0000E-04  6.0000E-04  6.0000E-04  7.0000E-04
   3   1.3000E-03  1.4000E-03  1.4000E-03  1.4000E-03  1.4000E-03  1.4000E-03  1.4000E-03  1.4000E-03  1.3000E-03  1.2000E-03
       1.1000E-03  1.0000E-03  9.0000E-04  7.0000E-04  6.0000E-04  5.0000E-04  4.0000E-04  3.0000E-04  3.0000E-04  3.0000E-04
       3.0000E-04  3.0000E-04  3.0000E-04  3.0000E-04  4.0000E-04  4.0000E-04  4.0000E-04  5.0000E-04  5.0000E-04  5.0000E-04
       6.0000E-04  6.0000E-04  6.0000E-04  7.0000E-04  7.0000E-04
   4   1.4000E-03  1.4000E-03  1.5000E-03  1.5000E-03  1.5000E-03  1.5000E-03  1.5000E-03  1.5000E-03  1.4000E-03  1.3000E-03
       1.2000E-03  1.1000E-03  9.0000E-04  8.0000E-04  6.0000E-04  5.0000E-04  4.0000E-04  3.0000E-04  3.0000E-04  3.0000E-04
       3.0000E-04  3.0000E-04  3.0000E-04  4.0000E-04  4.0000E-04  4.0000E-04  4.0000E-04  5.0000E-04  5.0000E-04  5.0000E-04
       6.0000E-04  6.0000E-04  6.0000E-04  7.0000E-04  7.0000E-04
   5   1.4000E-03  1.4000E-03  1.5000E-03  1.6000E-03  1.6000E-03  1.6000E-03  1.6000E-03  1.6000E-03  1.5000E-03  1.4000E-03
       1.3000E-03  1.1000E-03  1.0000E-03  8.0000E-04  6.0000E-04  5.0000E-04  3.0000E-04  2.0000E-04  2.0000E-04  2.0000E-04
       3.0000E-04  3.0000E-04  3.0000E-04  4.0000E-04  4.0000E-04  4.0000E-04  5.0000E-04  5.0000E-04  5.0000E-04  6.0000E-04
       6.0000E-04  6.0000E-04  7.0000E-04  7.0000E-04  7.0000E-04
   6   1.4000E-03  1.5000E-03  1.5000E-03  1.6000E-03  1.7000E-03  1.7000E-03  1.7000E-03  1.7000E-03  1.6000E-03  1.5000E-03
       1.4000E-03  1.2000E-03  1.1000E-03  9.0000E-04  7.0000E-04  5.0000E-04  3.0000E-04  2.0000E-04  2.0000E-04  3.0000E-04
       3.0000E-04  3.0000E-04  4.0000E-04  4.0000E-04  4.0000E-04  5.0000E-04  5.0000E-04  5.0000E-04  6.0000E-04  6.0000E-04
       6.0000E-04  7.0000E-04  7.0000E-04  7.0000E-04  8.0000E-04
   7   1.4000E-03  1.5000E-03  1.6000E-03  1.7000E-03  1.8000E-03  1.8000E-03  1.8000E-03  1.8000E-03  1.7000E-03  1.6000E-03
       1.5000E-03  1.3000E-03  1.2000E-03  1.0000E-03  8.0000E-04  6.0000E-04  4.0000E-04  3.0000E-04  3.0000E-04  3.0000E-04
       4.0000E-04  4.0000E-04  4.0000E-04  5.0000E-04  5.0000E-04  5.0000E-04  5.0000E-04  6.0000E-04  6.0000E-04  6.0000E-04
       7.0000E-04  7.0000E-04  7.0000E-04  8.0000E-04  8.0000E-04
   8   1.3000E-03  1.4000E-03  1.5000E-03  1.7000E-03  1.8000E-03  1.9000E-03  1.9000E-03  1.9000E-03  1.8000E-03  1.7000E-03
       1.6000E-03  1.4000E-03  1.3000E-03  1.1000E-03  9.0000E-04  7.0000E-04  6.0000E-04  5.0000E-04  4.0000E-04  5.0000E-04
       5.0000E-04  5.0000E-04  5.0000E-04  5.0000E-04  5.0000E-04  6.0000E-04  6.0000E-04  6.0000E-04  6.0000E-04  7.0000E-04
       7.0000E-04  8.0000E-04  8.0000E-04  8.0000E-04  9.0000E-04
   9   1.3000E-03  1.4000E-03  1.5000E-03  1.7000E-03  1.8000E-03  2.0000E-03  2.0000E-03  2.0000E-03  1.9000E-03  1.8000E-03
       1.7000E-03  1.6000E-03  1.4000E-03  1.2000E-03  1.1000E-03  9.0000E-04  8.0000E-04  7.0000E-04  6.0000E-04  6.0000E-04
       6.0000E-04  6.0000E-04  6.0000E-04  6.0000E-04  6.0000E-04  6.0000E-04  6.0000E-04  7.0000E-04  7.0000E-04  7.0000E-04
       8.0000E-04  8.0000E-04  8.0000E-04  9.0000E-04  9.0000E-04
  10   1.2000E-03  1.3000E-03  1.4000E-03  1.5000E-03  1.8000E-03  2.1000E-03  2.1000E-03  2.0000E-03  1.9000E-03  1.9000E-03
       1.8000E-03  1.7000E-03  1.5000E-03  1.4000E-03  1.2000E-03  1.0000E-03  9.0000E-04  8.0000E-04  8.0000E-04  7.0000E-04
       7.0000E-04  7.0000E-04  7.0000E-04  7.0000E-04  7.0000E-04  7.0000E-04  7.0000E-04  7.0000E-04  7.0000E-04  8.0000E-04
       8.0000E-04  9.0000E-04  9.0000E-04  9.0000E-04  1.0000E-03
  11   1.1000E-03  1.1000E-03  1.2000E-03  1.3000E-03  1.5000E-03  1.7000E-03  1.8000E-03  1.8000E-03  1.9000E-03  1.9000E-03
       1.9000E-03  1.8000E-03  1.6000E-03  1.5000E-03  1.3000E-03  1.2000E-03  1.1000E-03  1.0000E-03  9.0000E-04  9.0000E-04
       8.0000E-04  8.0000E-04  8.0000E-04  8.0000E-04  8.0000E-04  7.0000E-04  8.0000E-04  8.0000E-04  8.0000E-04  8.0000E-04
       9.0000E-04  9.0000E-04  1.0000E-03  1.0000E-03  1.0000E-03
  12   9.0000E-04  9.0000E-04  1.0000E-03  1.0000E-03  1.0000E-03  1.1000E-03  1.4000E-03  1.6000E-03  1.8000E-03  1.9000E-03
       2.0000E-03  1.9000E-03  1.7000E-03  1.6000E-03  1.4000E-03  1.3000E-03  1.2000E-03  1.1000E-03  1.1000E-03  1.0000E-03
       1.0000E-03  9.0000E-04  9.0000E-04  9.0000E-04  8.0000E-04  8.0000E-04  8.0000E-04  8.0000E-04  9.0000E-04  9.0000E-04
       9.0000E-04  1.0000E-03  1.0000E-03  1.1000E-03  1.1000E-03
  13   8.0000E-04  8.0000E-04  8.0000E-04  7.0000E-04  6.0000E-04  5.0000E-04  1.0000E-03  1.3000E-03  1.6000E-03  1.9000E-03
       2.0000E-03  1.9000E-03  1.7000E-03  1.6000E-03  1.5000E-03  1.4000E-03  1.3000E-03  1.3000E-03  1.2000E-03  1.2000E-03
       1.1000E-03  1.1000E-03  1.0000E-03  1.0000E-03  9.0000E-04  9.0000E-04  9.0000E-04  9.0000E-04  9.0000E-04  1.0000E-03
       1.0000E-03  1.1000E-03  1.1000E-03  1.1000E-03  1.2000E-03
  14   7.0000E-04  6.0000E-04  6.0000E-04  5.0000E-04  5.0000E-04  5.0000E-04  8.0000E-04  1.1000E-03  1.4000E-03  1.7000E-03
       1.8000E-03  1.8000E-03  1.7000E-03  1.6000E-03  1.5000E-03  1.5000E-03  1.4000E-03  1.4000E-03  1.3000E-03  1.3000E-03
       1.3000E-03  1.2000E-03  1.2000E-03  1.1000E-03  1.0000E-03  1.0000E-03  9.0000E-04  9.0000E-04  1.0000E-03  1.0000E-03
       1.1000E-03  1.1000E-03  1.2000E-03  1.2000E-03  1.3000E-03
  15   6.0000E-04  5.0000E-04  5.0000E-04  4.0000E-04  4.0000E-04  5.0000E-04  6.0000E-04  9.0000E-04  1.1000E-03  1.4000E-03
       1.5000E-03  1.6000E-03  1.6000E-03  1.6000E-03  1.6000E-03  1.5000E-03  1.5000E-03  1.5000E-03  1.5000E-03  1.4000E-03
       1.4000E-03  1.4000E-03  1.3000E-03  1.2000E-03  1.2000E-03  1.1000E-03  1.0000E-03  1.0000E-03  1.1000E-03  1.1000E-03
       1.2000E-03  1.2000E-03  1.3000E-03  1.3000E-03  1.4000E-03
  16   5.0000E-04  5.0000E-04  4.0000E-04  4.0000E-04  4.0000E-04  4.0000E-04  5.0000E-04  6.0000E-04  8.0000E-04  1.1000E-03
       1.3000E-03  1.4000E-03  1.5000E-03  1.5000E-03  1.6000E-03  1.6000E-03  1.6000E-03  1.6000E-03  1.6000E-03  1.6000E-03
       1.6000E-03  1.6000E-03  1.5000E-03  1.4000E-03  1.3000E-03  1.2000E-03  1.1000E-03  1.1000E-03  1.2000E-03  1.3000E-03
       1.3000E-03  1.4000E-03  1.4000E-03  1.4000E-03  1.5000E-03
  17   5.0000E-04  4.0000E-04  4.0000E-04  3.0000E-04  3.0000E-04  3.0000E-04  3.0000E-04  4.0000E-04  6.0000E-04  8.0000E-04
       1.0000E-03  1.2000E-03  1.4000E-03  1.5000E-03  1.5000E-03  1.6000E-03  1.7000E-03  1.7000E-03  1.7000E-03  1.8000E-03
       1.8000E-03  1.7000E-03  1.7000E-03  1.6000E-03  1.5000E-03  1.4000E-03  1.3000E-03  1.3000E-03  1.4000E-03  1.4000E-03
       1.5000E-03  1.5000E-03  1.5000E-03  1.5000E-03  1.6000E-03
  18   4.0000E-04  4.0000E-04  3.0000E-04  3.0000E-04  3.0000E-04  3.0000E-04  2.0000E-04  2.0000E-04  3.0000E-04  6.0000E-04
       9.0000E-04  1.1000E-03  1.3000E-03  1.4000E-03  1.5000E-03  1.6000E-03  1.7000E-03  1.8000E-03  1.9000E-03  1.9000E-03
       2.0000E-03  2.0000E-03  1.9000E-03  1.9000E-03  1.8000E-03  1.7000E-03  1.6000E-03  1.6000E-03  1.6000E-03  1.6000E-03
       1.6000E-03  1.6000E-03  1.7000E-03  1.7000E-03  1.7000E-03
  19   4.0000E-04  4.0000E-04  3.0000E-04  3.0000E-04  3.0000E-04  3.0000E-04  2.0000E-04  2.0000E-04  4.0000E-04  6.0000E-04
       8.0000E-04  1.1000E-03  1.3000E-03  1.4000E-03  1.6000E-03  1.7000E-03  1.8000E-03  1.9000E-03  2.0000E-03  2.1000E-03
       2.2000E-03  2.2000E-03  2.2000E-03  2.1000E-03  2.0000E-03  1.9000E-03  1.9000E-03  1.8000E-03  1.8000E-03  1.8000E-03
       1.8000E-03  1.8000E-03  1.8000E-03  1.8000E-03  1.8000E-03
  20   4.0000E-04  4.0000E-04  4.0000E-04  3.0000E-04  3.0000E-04  3.0000E-04  3.0000E-04  4.0000E-04  5.0000E-04  6.0000E-04
       9.0000E-04  1.1000E-03  1.3000E-03  1.4000E-03  1.6000E-03  1.7000E-03  1.9000E-03  2.0000E-03  2.1000E-03  2.2000E-03
       2.4000E-03  2.4000E-03  2.4000E-03  2.4000E-03  2.3000E-03  2.2000E-03  2.1000E-03  2.0000E-03  2.0000E-03  2.0000E-03
       1.9000E-03  1.9000E-03  1.9000E-03  1.9000E-03  1.9000E-03
  21   5.0000E-04  4.0000E-04  4.0000E-04  4.0000E-04  4.0000E-04  4.0000E-04  4.0000E-04  5.0000E-04  6.0000E-04  7.0000E-04
       9.0000E-04  1.1000E-03  1.3000E-03  1.5000E-03  1.6000E-03  1.8000E-03  1.9000E-03  2.1000E-03  2.2000E-03  2.4000E-03
       2.5000E-03  2.7000E-03  2.7000E-03  2.7000E-03  2.5000E-03  2.4000E-03  2.3000E-03  2.2000E-03  2.1000E-03  2.1000E-03
       2.1000E-03  2.0000E-03  2.0000E-03  2.0000E-03  2.0000E-03
  22   5.0000E-04  5.0000E-04  5.0000E-04  4.0000E-04  4.0000E-04  5.0000E-04  5.0000E-04  6.0000E-04  7.0000E-04  8.0000E-04
       1.0000E-03  1.2000E-03  1.3000E-03  1.5000E-03  1.7000E-03  1.8000E-03  2.0000E-03  2.2000E-03  2.3000E-03  2.5000E-03
       2.7000E-03  2.8000E-03  3.0000E-03  2.8000E-03  2.7000E-03  2.6000E-03  2.4000E-03  2.4000E-03  2.3000E-03  2.2000E-03
       2.2000E-03  2.1000E-03  2.1000E-03  2.1000E-03  2.0000E-03
  23   5.0000E-04  5.0000E-04  5.0000E-04  5.0000E-04  5.0000E-04  6.0000E-04  6.0000E-04  7.0000E-04  8.0000E-04  9.0000E-04
       1.1000E-03  1.2000E-03  1.4000E-03  1.5000E-03  1.7000E-03  1.9000E-03  2.1000E-03  2.2000E-03  2.4000E-03  2.6000E-03
       2.7000E-03  2.9000E-03  3.0000E-03  2.9000E-03  2.8000E-03  2.7000E-03  2.6000E-03  2.5000E-03  2.4000E-03  2.3000E-03
       2.3000E-03  2.2000E-03  2.2000E-03  2.1000E-03  2.1000E-03
  24   6.0000E-04  6.0000E-04  6.0000E-04  6.0000E-04  6.0000E-04  6.0000E-04  7.0000E-04  8.0000E-04  9.0000E-04  1.0000E-03
       1.1000E-03  1.3000E-03  1.4000E-03  1.6000E-03  1.8000E-03  1.9000E-03  2.1000E-03  2.2000E-03  2.4000E-03  2.6000E-03
       2.7000E-03  2.8000E-03  2.9000E-03  2.9000E-03  2.8000E-03  2.7000E-03  2.6000E-03  2.5000E-03  2.5000E-03  2.4000E-03
       2.3000E-03  2.3000E-03  2.2000E-03  2.2000E-03  2.2000E-03
  25   6.0000E-04  6.0000E-04  6.0000E-04  7.0000E-04  7.0000E-04  7.0000E-04  8.0000E-04  9.0000E-04  1.0000E-03  1.1000E-03
       1.2000E-03  1.3000E-03  1.5000E-03  1.6000E-03  1.8000E-03  2.0000E-03  2.1000E-03  2.3000E-03  2.4000E-03  2.6000E-03
       2.7000E-03  2.8000E-03  2.8000E-03  2.8000E-03  2.8000E-03  2.7000E-03  2.7000E-03  2.6000E-03  2.5000E-03  2.5000E-03
       2.4000E-03  2.3000E-03  2.3000E-03  2.3000E-03  2.2000E-03
  26   7.0000E-04  7.0000E-04  7.0000E-04  7.0000E-04  8.0000E-04  8.0000E-04  9.0000E-04  1.0000E-03  1.0000E-03  1.2000E-03
       1.3000E-03  1.4000E-03  1.5000E-03  1.7000E-03  1.8000E-03  2.0000E-03  2.1000E-03  2.3000E-03  2.4000E-03  2.5000E-03
       2.6000E-03  2.7000E-03  2.8000E-03  2.8000E-03  2.8000E-03  2.7000E-03  2.7000E-03  2.6000E-03  2.5000E-03  2.5000E-03
       2.4000E-03  2.4000E-03  2.3000E-03  2.3000E-03  2.3000E-03
  27   7.0000E-04  7.0000E-04  8.0000E-04  8.0000E-04  8.0000E-04  9.0000E-04  1.0000E-03  1.0000E-03  1.1000E-03  1.2000E-03
       1.3000E-03  1.5000E-03  1.6000E-03  1.7000E-03  1.9000E-03  2.0000E-03  2.1000E-03  2.3000E-03  2.4000E-03  2.5000E-03
       2.6000E-03  2.7000E-03  2.7000E-03  2.7000E-03  2.7000E-03  2.7000E-03  2.7000E-03  2.6000E-03  2.6000E-03  2.5000E-03
       2.5000E-03  2.4000E-03  2.4000E-03  2.3000E-03  2.3000E-03
  28   8.0000E-04  8.0000E-04  8.0000E-04  9.0000E-04  9.0000E-04  1.0000E-03  1.0000E-03  1.1000E-03  1.2000E-03  1.3000E-03
       1.4000E-03  1.5000E-03  1.6000E-03  1.7000E-03  1.9000E-03  2.0000E-03  2.1000E-03  2.2000E-03  2.4000E-03  2.5000E-03
       2.6000E-03  2.6000E-03  2.7000E-03  2.7000E-03  2.7000E-03  2.7000E-03  2.6000E-03  2.6000E-03  2.6000E-03  2.5000E-03
       2.5000E-03  2.4000E-03  2.4000E-03  2.4000E-03  2.3000E-03
  29   8.0000E-04  9.0000E-04  9.0000E-04  9.0000E-04  1.0000E-03  1.0000E-03  1.1000E-03  1.2000E-03  1.2000E-03  1.3000E-03
       1.4000E-03  1.5000E-03  1.7000E-03  1.8000E-03  1.9000E-03  2.0000E-03  2.1000E-03  2.2000E-03  2.3000E-03  2.4000E-03
       2.5000E-03  2.6000E-03  2.6000E-03  2.6000E-03  2.7000E-03  2.6000E-03  2.6000E-03  2.6000E-03  2.6000E-03  2.5000E-03
       2.5000E-03  2.5000E-03  2.4000E-03  2.4000E-03  2.4000E-03
  30   9.0000E-04  9.0000E-04  9.0000E-04  1.0000E-03  1.0000E-03  1.1000E-03  1.2000E-03  1.2000E-03  1.3000E-03  1.4000E-03
       1.5000E-03  1.6000E-03  1.7000E-03  1.8000E-03  1.9000E-03  2.0000E-03  2.1000E-03  2.2000E-03  2.3000E-03  2.4000E-03
       2.5000E-03  2.5000E-03  2.6000E-03  2.6000E-03  2.6000E-03  2.6000E-03  2.6000E-03  2.6000E-03  2.6000E-03  2.5000E-03
       2.5000E-03  2.5000E-03  2.4000E-03  2.4000E-03  2.4000E-03
  31   9.0000E-04  1.0000E-03  1.0000E-03  1.0000E-03  1.1000E-03  1.1000E-03  1.2000E-03  1.3000E-03  1.4000E-03  1.4000E-03
       1.5000E-03  1.6000E-03  1.7000E-03  1.8000E-03  1.9000E-03  2.0000E-03  2.1000E-03  2.2000E-03  2.3000E-03  2.4000E-03
       2.4000E-03  2.5000E-03  2.5000E-03  2.6000E-03  2.6000E-03  2.6000E-03  2.6000E-03  2.6000E-03  2.5000E-03  2.5000E-03
       2.5000E-03  2.5000E-03  2.4000E-03  2.4000E-03  2.4000E-03
  32   1.0000E-03  1.0000E-03  1.1000E-03  1.1000E-03  1.1000E-03  1.2000E-03  1.3000E-03  1.3000E-03  1.4000E-03  1.5000E-03
       1.6000E-03  1.6000E-03  1.7000E-03  1.8000E-03  1.9000E-03  2.0000E-03  2.1000E-03  2.2000E-03  2.3000E-03  2.3000E-03
       2.4000E-03  2.5000E-03  2.5000E-03  2.5000E-03  2.5000E-03  2.6000E-03  2.6000E-03  2.5000E-03  2.5000E-03  2.5000E-03
       2.5000E-03  2.5000E-03  2.4000E-03  2.4000E-03  2.4000E-03
  33   1.0000E-03  1.1000E-03  1.1000E-03  1.1000E-03  1.2000E-03  1.2000E-03  1.3000E-03  1.4000E-03  1.4000E-03  1.5000E-03
       1.6000E-03  1.7000E-03  1.8000E-03  1.8000E-03  1.9000E-03  2.0000E-03  2.1000E-03  2.2000E-03  2.2000E-03  2.3000E-03
       2.4000E-03  2.4000E-03  2.5000E-03  2.5000E-03  2.5000E-03  2.5000E-03  2.5000E-03  2.5000E-03  2.5000E-03  2.5000E-03
       2.5000E-03  2.5000E-03  2.4000E-03  2.4000E-03  2.4000E-03
  34   1.1000E-03  1.1000E-03  1.1000E-03  1.2000E-03  1.2000E-03  1.3000E-03  1.3000E-03  1.4000E-03  1.5000E-03  1.5000E-03
       1.6000E-03  1.7000E-03  1.8000E-03  1.9000E-03  1.9000E-03  2.0000E-03  2.1000E-03  2.2000E-03  2.2000E-03  2.3000E-03
       2.3000E-03  2.4000E-03  2.4000E-03  2.5000E-03  2.5000E-03  2.5000E-03  2.5000E-03  2.5000E-03  2.5000E-03  2.5000E-03
       2.5000E-03  2.5000E-03  2.4000E-03  2.4000E-03  2.4000E-03
  35   1.1000E-03  1.2000E-03  1.2000E-03  1.2000E-03  1.3000E-03  1.3000E-03  1.4000E-03  1.4000E-03  1.5000E-03  1.6000E-03
       1.6000E-03  1.7000E-03  1.8000E-03  1.9000E-03  1.9000E-03  2.0000E-03  2.1000E-03  2.1000E-03  2.2000E-03  2.3000E-03
       2.3000E-03  2.4000E-03  2.4000E-03  2.4000E-03  2.5000E-03  2.5000E-03  2.5000E-03  2.5000E-03  2.5000E-03  2.5000E-03
       2.5000E-03  2.5000E-03  2.4000E-03  2.4000E-03  2.4000E-03
  36   1.2000E-03  1.2000E-03  1.2000E-03  1.3000E-03  1.3000E-03  1.4000E-03  1.4000E-03  1.5000E-03  1.5000E-03  1.6000E-03
       1.7000E-03  1.7000E-03  1.8000E-03  1.9000E-03  1.9000E-03  2.0000E-03  2.1000E-03  2.1000E-03  2.2000E-03  2.2000E-03
       2.3000E-03  2.3000E-03  2.4000E-03  2.4000E-03  2.4000E-03  2.4000E-03  2.5000E-03  2.5000E-03  2.5000E-03  2.5000E-03
       2.5000E-03  2.4000E-03  2.4000E-03  2.4000E-03  2.4000E-03
  37   1.2000E-03  1.2000E-03  1.3000E-03  1.3000E-03  1.4000E-03  1.4000E-03  1.5000E-03  1.5000E-03  1.6000E-03  1.6000E-03
       1.7000E-03  1.7000E-03  1.8000E-03  1.9000E-03  1.9000E-03  2.0000E-03  2.1000E-03  2.1000E-03  2.2000E-03  2.2000E-03
       2.3000E-03  2.3000E-03  2.4000E-03  2.4000E-03  2.4000E-03  2.4000E-03  2.4000E-03  2.4000E-03  2.4000E-03  2.4000E-03
       2.4000E-03  2.4000E-03  2.4000E-03  2.4000E-03  2.4000E-03
  38   1.2000E-03  1.3000E-03  1.3000E-03  1.3000E-03  1.4000E-03  1.4000E-03  1.5000E-03  1.5000E-03  1.6000E-03  1.6000E-03
       1.7000E-03  1.8000E-03  1.8000E-03  1.9000E-03  1.9000E-03  2.0000E-03  2.1000E-03  2.1000E-03  2.2000E-03  2.2000E-03
       2.3000E-03  2.3000E-03  2.3000E-03  2.4000E-03  2.4000E-03  2.4000E-03  2.4000E-03  2.4000E-03  2.4000E-03  2.4000E-03
       2.4000E-03  2.4000E-03  2.4000E-03  2.4000E-03  2.4000E-03
  39   1.3000E-03  1.3000E-03  1.3000E-03  1.4000E-03  1.4000E-03  1.5000E-03  1.5000E-03  1.6000E-03  1.6000E-03  1.7000E-03
       1.7000E-03  1.8000E-03  1.8000E-03  1.9000E-03  1.9000E-03  2.0000E-03  2.1000E-03  2.1000E-03  2.2000E-03  2.2000E-03
       2.2000E-03  2.3000E-03  2.3000E-03  2.3000E-03  2.4000E-03  2.4000E-03  2.4000E-03  2.4000E-03  2.4000E-03  2.4000E-03
       2.4000E-03  2.4000E-03  2.4000E-03  2.4000E-03  2.4000E-03
  40   1.3000E-03  1.3000E-03  1.4000E-03  1.4000E-03  1.4000E-03  1.5000E-03  1.5000E-03  1.6000E-03  1.6000E-03  1.7000E-03
       1.7000E-03  1.8000E-03  1.8000E-03  1.9000E-03  1.9000E-03  2.0000E-03  2.0000E-03  2.1000E-03  2.1000E-03  2.2000E-03
       2.2000E-03  2.3000E-03  2.3000E-03  2.3000E-03  2.3000E-03  2.4000E-03  2.4000E-03  2.4000E-03  2.4000E-03  2.4000E-03
       2.4000E-03  2.4000E-03  2.4000E-03  2.4000E-03  2.4000E-03
  41   1.3000E-03  1.4000E-03  1.4000E-03  1.4000E-03  1.5000E-03  1.5000E-03  1.6000E-03  1.6000E-03  1.6000E-03  1.7000E-03
       1.7000E-03  1.8000E-03  1.8000E-03  1.9000E-03  1.9000E-03  2.0000E-03  2.0000E-03  2.1000E-03  2.1000E-03  2.2000E-03
       2.2000E-03  2.2000E-03  2.3000E-03  2.3000E-03  2.3000E-03  2.3000E-03  2.4000E-03  2.4000E-03  2.4000E-03  2.4000E-03
       2.4000E-03  2.4000E-03  2.4000E-03  2.4000E-03  2.4000E-03
  42   1.4000E-03  1.4000E-03  1.4000E-03  1.5000E-03  1.5000E-03  1.5000E-03  1.6000E-03  1.6000E-03  1.7000E-03  1.7000E-03
       1.8000E-03  1.8000E-03  1.9000E-03  1.9000E-03  1.9000E-03  2.0000E-03  2.0000E-03  2.1000E-03  2.1000E-03  2.2000E-03
       2.2000E-03  2.2000E-03  2.3000E-03  2.3000E-03  2.3000E-03  2.3000E-03  2.3000E-03  2.3000E-03  2.4000E-03  2.4000E-03
       2.4000E-03  2.4000E-03  2.4000E-03  2.4000E-03  2.4000E-03
  43   1.4000E-03  1.4000E-03  1.4000E-03  1.5000E-03  1.5000E-03  1.6000E-03  1.6000E-03  1.6000E-03  1.7000E-03  1.7000E-03
       1.8000E-03  1.8000E-03  1.9000E-03  1.9000E-03  1.9000E-03  2.0000E-03  2.0000E-03  2.1000E-03  2.1000E-03  2.1000E-03
       2.2000E-03  2.2000E-03  2.2000E-03  2.3000E-03  2.3000E-03  2.3000E-03  2.3000E-03  2.3000E-03  2.3000E-03  2.3000E-03
       2.4000E-03  2.4000E-03  2.4000E-03  2.4000E-03  2.3000E-03
  44   1.4000E-03  1.4000E-03  1.5000E-03  1.5000E-03  1.5000E-03  1.6000E-03  1.6000E-03  1.7000E-03  1.7000E-03  1.7000E-03
       1.8000E-03  1.8000E-03  1.9000E-03  1.9000E-03  1.9000E-03  2.0000E-03  2.0000E-03  2.1000E-03  2.1000E-03  2.1000E-03
       2.2000E-03  2.2000E-03  2.2000E-03  2.2000E-03  2.3000E-03  2.3000E-03  2.3000E-03  2.3000E-03  2.3000E-03  2.3000E-03
       2.3000E-03  2.3000E-03  2.3000E-03  2.3000E-03  2.3000E-03
  45   1.4000E-03  1.5000E-03  1.5000E-03  1.5000E-03  1.6000E-03  1.6000E-03  1.6000E-03  1.7000E-03  1.7000E-03  1.7000E-03
       1.8000E-03  1.8000E-03  1.9000E-03  1.9000E-03  1.9000E-03  2.0000E-03  2.0000E-03  2.1000E-03  2.1000E-03  2.1000E-03
       2.2000E-03  2.2000E-03  2.2000E-03  2.2000E-03  2.3000E-03  2.3000E-03  2.3000E-03  2.3000E-03  2.3000E-03  2.3000E-03
       2.3000E-03  2.3000E-03  2.3000E-03  2.3000E-03  2.3000E-03

   HORIZ. ANI. (COL./ROW) =   1.00000     FOR LAYER   3



                VERTICAL HYD. COND. FOR LAYER   3
 READING ON UNIT   14 WITH FORMAT: (FREE)              

            1           2           3           4           5           6           7           8           9          10
           11          12          13          14          15          16          17          18          19          20
           21          22          23          24          25          26          27          28          29          30
           31          32          33          34          35
 ........................................................................................................................
   1   2.6000E-04  2.6000E-04  2.6000E-04  2.6000E-04  2.6000E-04  2.6000E-04  2.6000E-04  2.4000E-04  2.4000E-04  2.2000E-04
       2.0000E-04  1.8000E-04  1.6000E-04  1.4000E-04  1.2000E-04  1.0000E-04  8.0000E-05  8.0000E-05  6.0000E-05  6.0000E-05
       6.0000E-05  6.0000E-05  6.0000E-05  6.0000E-05  8.0000E-05   1.000       1.000       1.000       1.000       1.000    
        1.000       1.000       1.000       1.000       1.000    
   2   2.6000E-04  2.6000E-04  2.6000E-04  2.8000E-04  2.8000E-04  2.8000E-04  2.6000E-04   1.000       1.000       1.000    
        1.000       1.000       1.000       1.000       1.000       1.000       1.000       1.000       1.000       1.000    
        1.000       1.000       1.000       1.000       1.000       1.000      8.0000E-05  8.0000E-05  1.0000E-04  1.0000E-04
       1.0000E-04  1.2000E-04  1.2000E-04  1.2000E-04  1.4000E-04
   3    1.000       1.000       1.000       1.000       1.000       1.000       1.000       1.000      2.6000E-04  2.4000E-04
       2.2000E-04  2.0000E-04  1.8000E-04  1.4000E-04  1.2000E-04  1.0000E-04  8.0000E-05  6.0000E-05  6.0000E-05  6.0000E-05
       6.0000E-05  6.0000E-05  6.0000E-05  6.0000E-05  8.0000E-05  8.0000E-05  8.0000E-05  1.0000E-04  1.0000E-04  1.0000E-04
       1.2000E-04  1.2000E-04  1.2000E-04  1.4000E-04  1.4000E-04
   4   2.8000E-04  2.8000E-04  3.0000E-04  3.0000E-04  3.0000E-04  3.0000E-04  3.0000E-04  3.0000E-04  2.8000E-04  2.6000E-04
       2.4000E-04  2.2000E-04  1.8000E-04  1.6000E-04  1.2000E-04  1.0000E-04  8.0000E-05  6.0000E-05  6.0000E-05  6.0000E-05
       6.0000E-05  6.0000E-05  6.0000E-05  8.0000E-05  8.0000E-05  8.0000E-05  8.0000E-05  1.0000E-04  1.0000E-04  1.0000E-04
       1.2000E-04  1.2000E-04  1.2000E-04  1.4000E-04  1.4000E-04
   5   2.8000E-04  2.8000E-04  3.0000E-04  3.2000E-04  3.2000E-04  3.2000E-04  3.2000E-04  3.2000E-04  3.0000E-04  2.8000E-04
       2.6000E-04  2.2000E-04  2.0000E-04  1.6000E-04  1.2000E-04  1.0000E-04  6.0000E-05  4.0000E-05  4.0000E-05  4.0000E-05
       6.0000E-05  6.0000E-05  6.0000E-05  8.0000E-05  8.0000E-05  8.0000E-05  1.0000E-04  1.0000E-04  1.0000E-04  1.2000E-04
       1.2000E-04  1.2000E-04  1.4000E-04  1.4000E-04  1.4000E-04
   6   2.8000E-04  3.0000E-04  3.0000E-04  3.2000E-04  3.4000E-04  3.4000E-04  3.4000E-04  3.4000E-04  3.2000E-04  3.0000E-04
       2.8000E-04  2.4000E-04  2.2000E-04  1.8000E-04  1.4000E-04  1.0000E-04  6.0000E-05  4.0000E-05  4.0000E-05  6.0000E-05
       6.0000E-05  6.0000E-05  8.0000E-05  8.0000E-05  8.0000E-05  1.0000E-04  1.0000E-04  1.0000E-04  1.2000E-04  1.2000E-04
       1.2000E-04  1.4000E-04  1.4000E-04  1.4000E-04  1.6000E-04
   7   2.8000E-04  3.0000E-04  3.2000E-04  3.4000E-04  3.6000E-04  3.6000E-04  3.6000E-04  3.6000E-04  3.4000E-04  3.2000E-04
       3.0000E-04  2.6000E-04  2.4000E-04  2.0000E-04  1.6000E-04  1.2000E-04  8.0000E-05  6.0000E-05  6.0000E-05  6.0000E-05
       8.0000E-05  8.0000E-05  8.0000E-05  1.0000E-04  1.0000E-04  1.0000E-04  1.0000E-04  1.2000E-04  1.2000E-04  1.2000E-04
       1.4000E-04  1.4000E-04  1.4000E-04  1.6000E-04  1.6000E-04
   8   2.6000E-04  2.8000E-04  3.0000E-04  3.4000E-04  3.6000E-04  3.8000E-04  3.8000E-04  3.8000E-04  3.6000E-04  3.4000E-04
       3.2000E-04  2.8000E-04  2.6000E-04  2.2000E-04  1.8000E-04  1.4000E-04  1.2000E-04  1.0000E-04  8.0000E-05  1.0000E-04
       1.0000E-04  1.0000E-04  1.0000E-04  1.0000E-04  1.0000E-04  1.2000E-04  1.2000E-04  1.2000E-04  1.2000E-04  1.4000E-04
       1.4000E-04  1.6000E-04  1.6000E-04  1.6000E-04  1.8000E-04
   9   2.6000E-04  2.8000E-04  3.0000E-04  3.4000E-04  3.6000E-04  4.0000E-04  4.0000E-04  4.0000E-04  3.8000E-04  3.6000E-04
       3.4000E-04  3.2000E-04  2.8000E-04  2.4000E-04  2.2000E-04  1.8000E-04  1.6000E-04  1.4000E-04  1.2000E-04  1.2000E-04
       1.2000E-04  1.2000E-04  1.2000E-04  1.2000E-04  1.2000E-04  1.2000E-04  1.2000E-04  1.4000E-04  1.4000E-04  1.4000E-04
       1.6000E-04  1.6000E-04  1.6000E-04  1.8000E-04  1.8000E-04
  10   2.4000E-04  2.6000E-04  2.8000E-04  3.0000E-04  3.6000E-04  4.2000E-04  4.2000E-04  4.0000E-04  3.8000E-04  3.8000E-04
       3.6000E-04  3.4000E-04  3.0000E-04  2.8000E-04  2.4000E-04  2.0000E-04  1.8000E-04  1.6000E-04  1.6000E-04  1.4000E-04
       1.4000E-04  1.4000E-04  1.4000E-04  1.4000E-04  1.4000E-04  1.4000E-04  1.4000E-04  1.4000E-04  1.4000E-04  1.6000E-04
       1.6000E-04  1.8000E-04  1.8000E-04  1.8000E-04  2.0000E-04
  11   2.2000E-04  2.2000E-04  2.4000E-04  2.6000E-04  3.0000E-04  3.4000E-04  3.6000E-04  3.6000E-04  3.8000E-04  3.8000E-04
       3.8000E-04  3.6000E-04  3.2000E-04  3.0000E-04  2.6000E-04  2.4000E-04  2.2000E-04  2.0000E-04  1.8000E-04  1.8000E-04
       1.6000E-04  1.6000E-04  1.6000E-04  1.6000E-04  1.6000E-04  1.4000E-04  1.6000E-04  1.6000E-04  1.6000E-04  1.6000E-04
       1.8000E-04  1.8000E-04  2.0000E-04  2.0000E-04  2.0000E-04
  12   1.8000E-04  1.8000E-04  2.0000E-04  2.0000E-04  2.0000E-04  2.2000E-04  2.8000E-04  3.2000E-04  3.6000E-04  3.8000E-04
       4.0000E-04  3.8000E-04  3.4000E-04  3.2000E-04  2.8000E-04  2.6000E-04  2.4000E-04  2.2000E-04  2.2000E-04  2.0000E-04
       2.0000E-04  1.8000E-04  1.8000E-04  1.8000E-04  1.6000E-04  1.6000E-04  1.6000E-04  1.6000E-04  1.8000E-04  1.8000E-04
       1.8000E-04  2.0000E-04  2.0000E-04  2.2000E-04  2.2000E-04
  13   1.6000E-04  1.6000E-04  1.6000E-04  1.4000E-04  1.2000E-04  1.0000E-04  2.0000E-04  2.6000E-04  3.2000E-04  3.8000E-04
       4.0000E-04  3.8000E-04  3.4000E-04  3.2000E-04  3.0000E-04  2.8000E-04  2.6000E-04  2.6000E-04  2.4000E-04  2.4000E-04
       2.2000E-04  2.2000E-04  2.0000E-04  2.0000E-04  1.8000E-04  1.8000E-04  1.8000E-04  1.8000E-04  1.8000E-04  2.0000E-04
       2.0000E-04  2.2000E-04  2.2000E-04  2.2000E-04  2.4000E-04
  14   1.4000E-04  1.2000E-04  1.2000E-04  1.0000E-04  1.0000E-04  1.0000E-04  1.6000E-04  2.2000E-04  2.8000E-04  3.4000E-04
       3.6000E-04  3.6000E-04  3.4000E-04  3.2000E-04  3.0000E-04  3.0000E-04  2.8000E-04  2.8000E-04  2.6000E-04  2.6000E-04
       2.6000E-04  2.4000E-04  2.4000E-04  2.2000E-04  2.0000E-04  2.0000E-04  1.8000E-04  1.8000E-04  2.0000E-04  2.0000E-04
       2.2000E-04  2.2000E-04  2.4000E-04  2.4000E-04  2.6000E-04
  15   1.2000E-04  1.0000E-04  1.0000E-04  8.0000E-05  8.0000E-05  1.0000E-04  1.2000E-04  1.8000E-04  2.2000E-04  2.8000E-04
       3.0000E-04  3.2000E-04  3.2000E-04  3.2000E-04  3.2000E-04  3.0000E-04  3.0000E-04  3.0000E-04  3.0000E-04  2.8000E-04
       2.8000E-04  2.8000E-04  2.6000E-04  2.4000E-04  2.4000E-04  2.2000E-04  2.0000E-04  2.0000E-04  2.2000E-04  2.2000E-04
       2.4000E-04  2.4000E-04  2.6000E-04  2.6000E-04  2.8000E-04
  16   1.0000E-04  1.0000E-04  8.0000E-05  8.0000E-05  8.0000E-05  8.0000E-05  1.0000E-04  1.2000E-04  1.6000E-04  2.2000E-04
       2.6000E-04  2.8000E-04  3.0000E-04  3.0000E-04  3.2000E-04  3.2000E-04  3.2000E-04  3.2000E-04  3.2000E-04  3.2000E-04
       3.2000E-04  3.2000E-04  3.0000E-04  2.8000E-04  2.6000E-04  2.4000E-04  2.2000E-04  2.2000E-04  2.4000E-04  2.6000E-04
       2.6000E-04  2.8000E-04  2.8000E-04  2.8000E-04  3.0000E-04
  17   1.0000E-04  8.0000E-05  8.0000E-05  6.0000E-05  6.0000E-05  6.0000E-05  6.0000E-05  8.0000E-05  1.2000E-04  1.6000E-04
       2.0000E-04  2.4000E-04  2.8000E-04  3.0000E-04  3.0000E-04  3.2000E-04  3.4000E-04  3.4000E-04  3.4000E-04  3.6000E-04
       3.6000E-04  3.4000E-04  3.4000E-04  3.2000E-04  3.0000E-04  2.8000E-04  2.6000E-04  2.6000E-04  2.8000E-04  2.8000E-04
       3.0000E-04  3.0000E-04  3.0000E-04  3.0000E-04  3.2000E-04
  18   8.0000E-05  8.0000E-05  6.0000E-05  6.0000E-05  6.0000E-05  6.0000E-05  4.0000E-05  4.0000E-05  6.0000E-05  1.2000E-04
       1.8000E-04  2.2000E-04  2.6000E-04  2.8000E-04  3.0000E-04  3.2000E-04  3.4000E-04  3.6000E-04  3.8000E-04  3.8000E-04
       4.0000E-04  4.0000E-04  3.8000E-04  3.8000E-04  3.6000E-04  3.4000E-04  3.2000E-04  3.2000E-04  3.2000E-04  3.2000E-04
       3.2000E-04  3.2000E-04  3.4000E-04  3.4000E-04  3.4000E-04
  19   8.0000E-05  8.0000E-05  6.0000E-05  6.0000E-05  6.0000E-05  6.0000E-05  4.0000E-05  4.0000E-05  8.0000E-05  1.2000E-04
       1.6000E-04  2.2000E-04  2.6000E-04  2.8000E-04  3.2000E-04  3.4000E-04  3.6000E-04  3.8000E-04  4.0000E-04  4.2000E-04
       4.4000E-04  4.4000E-04  4.4000E-04  4.2000E-04  4.0000E-04  3.8000E-04  3.8000E-04  3.6000E-04  3.6000E-04  3.6000E-04
       3.6000E-04  3.6000E-04  3.6000E-04  3.6000E-04  3.6000E-04
  20   8.0000E-05  8.0000E-05  8.0000E-05  6.0000E-05  6.0000E-05  6.0000E-05  6.0000E-05  8.0000E-05  1.0000E-04  1.2000E-04
       1.8000E-04  2.2000E-04  2.6000E-04  2.8000E-04  3.2000E-04  3.4000E-04  3.8000E-04  4.0000E-04  4.2000E-04  4.4000E-04
       4.8000E-04  4.8000E-04  4.8000E-04  4.8000E-04  4.6000E-04  4.4000E-04  4.2000E-04  4.0000E-04  4.0000E-04  4.0000E-04
       3.8000E-04  3.8000E-04  3.8000E-04  3.8000E-04  3.8000E-04
  21   1.0000E-04  8.0000E-05  8.0000E-05  8.0000E-05  8.0000E-05  8.0000E-05  8.0000E-05  1.0000E-04  1.2000E-04  1.4000E-04
       1.8000E-04  2.2000E-04  2.6000E-04  3.0000E-04  3.2000E-04  3.6000E-04  3.8000E-04  4.2000E-04  4.4000E-04  4.8000E-04
       5.0000E-04  5.4000E-04  5.4000E-04  5.4000E-04  5.0000E-04  4.8000E-04  4.6000E-04  4.4000E-04  4.2000E-04  4.2000E-04
       4.2000E-04  4.0000E-04  4.0000E-04  4.0000E-04  4.0000E-04
  22   1.0000E-04  1.0000E-04  1.0000E-04  8.0000E-05  8.0000E-05  1.0000E-04  1.0000E-04  1.2000E-04  1.4000E-04  1.6000E-04
       2.0000E-04  2.4000E-04  2.6000E-04  3.0000E-04  3.4000E-04  3.6000E-04  4.0000E-04  4.4000E-04  4.6000E-04  5.0000E-04
       5.4000E-04  5.6000E-04  6.0000E-04  5.6000E-04  5.4000E-04  5.2000E-04  4.8000E-04  4.8000E-04  4.6000E-04  4.4000E-04
       4.4000E-04  4.2000E-04  4.2000E-04  4.2000E-04  4.0000E-04
  23   1.0000E-04  1.0000E-04  1.0000E-04  1.0000E-04  1.0000E-04  1.2000E-04  1.2000E-04  1.4000E-04  1.6000E-04  1.8000E-04
       2.2000E-04  2.4000E-04  2.8000E-04  3.0000E-04  3.4000E-04  3.8000E-04  4.2000E-04  4.4000E-04  4.8000E-04  5.2000E-04
       5.4000E-04  5.8000E-04  6.0000E-04  5.8000E-04  5.6000E-04  5.4000E-04  5.2000E-04  5.0000E-04  4.8000E-04  4.6000E-04
       4.6000E-04  4.4000E-04  4.4000E-04  4.2000E-04  4.2000E-04
  24   1.2000E-04  1.2000E-04  1.2000E-04  1.2000E-04  1.2000E-04  1.2000E-04  1.4000E-04  1.6000E-04  1.8000E-04  2.0000E-04
       2.2000E-04  2.6000E-04  2.8000E-04  3.2000E-04  3.6000E-04  3.8000E-04  4.2000E-04  4.4000E-04  4.8000E-04  5.2000E-04
       5.4000E-04  5.6000E-04  5.8000E-04  5.8000E-04  5.6000E-04  5.4000E-04  5.2000E-04  5.0000E-04  5.0000E-04  4.8000E-04
       4.6000E-04  4.6000E-04  4.4000E-04  4.4000E-04  4.4000E-04
  25   1.2000E-04  1.2000E-04  1.2000E-04  1.4000E-04  1.4000E-04  1.4000E-04  1.6000E-04  1.8000E-04  2.0000E-04  2.2000E-04
       2.4000E-04  2.6000E-04  3.0000E-04  3.2000E-04  3.6000E-04  4.0000E-04  4.2000E-04  4.6000E-04  4.8000E-04  5.2000E-04
       5.4000E-04  5.6000E-04  5.6000E-04  5.6000E-04  5.6000E-04  5.4000E-04  5.4000E-04  5.2000E-04  5.0000E-04  5.0000E-04
       4.8000E-04  4.6000E-04  4.6000E-04  4.6000E-04  4.4000E-04
  26   1.4000E-04  1.4000E-04  1.4000E-04  1.4000E-04  1.6000E-04  1.6000E-04  1.8000E-04  2.0000E-04  2.0000E-04  2.4000E-04
       2.6000E-04  2.8000E-04  3.0000E-04  3.4000E-04  3.6000E-04  4.0000E-04  4.2000E-04  4.6000E-04  4.8000E-04  5.0000E-04
       5.2000E-04  5.4000E-04  5.6000E-04  5.6000E-04  5.6000E-04  5.4000E-04  5.4000E-04  5.2000E-04  5.0000E-04  5.0000E-04
       4.8000E-04  4.8000E-04  4.6000E-04  4.6000E-04  4.6000E-04
  27   1.4000E-04  1.4000E-04  1.6000E-04  1.6000E-04  1.6000E-04  1.8000E-04  2.0000E-04  2.0000E-04  2.2000E-04  2.4000E-04
       2.6000E-04  3.0000E-04  3.2000E-04  3.4000E-04  3.8000E-04  4.0000E-04  4.2000E-04  4.6000E-04  4.8000E-04  5.0000E-04
       5.2000E-04  5.4000E-04  5.4000E-04  5.4000E-04  5.4000E-04  5.4000E-04  5.4000E-04  5.2000E-04  5.2000E-04  5.0000E-04
       5.0000E-04  4.8000E-04  4.8000E-04  4.6000E-04  4.6000E-04
  28   1.6000E-04  1.6000E-04  1.6000E-04  1.8000E-04  1.8000E-04  2.0000E-04  2.0000E-04  2.2000E-04  2.4000E-04  2.6000E-04
       2.8000E-04  3.0000E-04  3.2000E-04  3.4000E-04  3.8000E-04  4.0000E-04  4.2000E-04  4.4000E-04  4.8000E-04  5.0000E-04
       5.2000E-04  5.2000E-04  5.4000E-04  5.4000E-04  5.4000E-04  5.4000E-04  5.2000E-04  5.2000E-04  5.2000E-04  5.0000E-04
       5.0000E-04  4.8000E-04  4.8000E-04  4.8000E-04  4.6000E-04
  29   1.6000E-04  1.8000E-04  1.8000E-04  1.8000E-04  2.0000E-04  2.0000E-04  2.2000E-04  2.4000E-04  2.4000E-04  2.6000E-04
       2.8000E-04  3.0000E-04  3.4000E-04  3.6000E-04  3.8000E-04  4.0000E-04  4.2000E-04  4.4000E-04  4.6000E-04  4.8000E-04
       5.0000E-04  5.2000E-04  5.2000E-04  5.2000E-04  5.4000E-04  5.2000E-04  5.2000E-04  5.2000E-04  5.2000E-04  5.0000E-04
       5.0000E-04  5.0000E-04  4.8000E-04  4.8000E-04  4.8000E-04
  30   1.8000E-04  1.8000E-04  1.8000E-04  2.0000E-04  2.0000E-04  2.2000E-04  2.4000E-04  2.4000E-04  2.6000E-04  2.8000E-04
       3.0000E-04  3.2000E-04  3.4000E-04  3.6000E-04  3.8000E-04  4.0000E-04  4.2000E-04  4.4000E-04  4.6000E-04  4.8000E-04
       5.0000E-04  5.0000E-04  5.2000E-04  5.2000E-04  5.2000E-04  5.2000E-04  5.2000E-04  5.2000E-04  5.2000E-04  5.0000E-04
       5.0000E-04  5.0000E-04  4.8000E-04  4.8000E-04  4.8000E-04
  31   1.8000E-04  2.0000E-04  2.0000E-04  2.0000E-04  2.2000E-04  2.2000E-04  2.4000E-04  2.6000E-04  2.8000E-04  2.8000E-04
       3.0000E-04  3.2000E-04  3.4000E-04  3.6000E-04  3.8000E-04  4.0000E-04  4.2000E-04  4.4000E-04  4.6000E-04  4.8000E-04
       4.8000E-04  5.0000E-04  5.0000E-04  5.2000E-04  5.2000E-04  5.2000E-04  5.2000E-04  5.2000E-04  5.0000E-04  5.0000E-04
       5.0000E-04  5.0000E-04  4.8000E-04  4.8000E-04  4.8000E-04
  32   2.0000E-04  2.0000E-04  2.2000E-04  2.2000E-04  2.2000E-04  2.4000E-04  2.6000E-04  2.6000E-04  2.8000E-04  3.0000E-04
       3.2000E-04  3.2000E-04  3.4000E-04  3.6000E-04  3.8000E-04  4.0000E-04  4.2000E-04  4.4000E-04  4.6000E-04  4.6000E-04
       4.8000E-04  5.0000E-04  5.0000E-04  5.0000E-04  5.0000E-04  5.2000E-04  5.2000E-04  5.0000E-04  5.0000E-04  5.0000E-04
       5.0000E-04  5.0000E-04  4.8000E-04  4.8000E-04  4.8000E-04
  33   2.0000E-04  2.2000E-04  2.2000E-04  2.2000E-04  2.4000E-04  2.4000E-04  2.6000E-04  2.8000E-04  2.8000E-04  3.0000E-04
       3.2000E-04  3.4000E-04  3.6000E-04  3.6000E-04  3.8000E-04  4.0000E-04  4.2000E-04  4.4000E-04  4.4000E-04  4.6000E-04
       4.8000E-04  4.8000E-04  5.0000E-04  5.0000E-04  5.0000E-04  5.0000E-04  5.0000E-04  5.0000E-04  5.0000E-04  5.0000E-04
       5.0000E-04  5.0000E-04  4.8000E-04  4.8000E-04  4.8000E-04
  34   2.2000E-04  2.2000E-04  2.2000E-04  2.4000E-04  2.4000E-04  2.6000E-04  2.6000E-04  2.8000E-04  3.0000E-04  3.0000E-04
       3.2000E-04  3.4000E-04  3.6000E-04  3.8000E-04  3.8000E-04  4.0000E-04  4.2000E-04  4.4000E-04  4.4000E-04  4.6000E-04
       4.6000E-04  4.8000E-04  4.8000E-04  5.0000E-04  5.0000E-04  5.0000E-04  5.0000E-04  5.0000E-04  5.0000E-04  5.0000E-04
       5.0000E-04  5.0000E-04  4.8000E-04  4.8000E-04  4.8000E-04
  35   2.2000E-04  2.4000E-04  2.4000E-04  2.4000E-04  2.6000E-04  2.6000E-04  2.8000E-04  2.8000E-04  3.0000E-04  3.2000E-04
       3.2000E-04  3.4000E-04  3.6000E-04  3.8000E-04  3.8000E-04  4.0000E-04  4.2000E-04  4.2000E-04  4.4000E-04  4.6000E-04
       4.6000E-04  4.8000E-04  4.8000E-04  4.8000E-04  5.0000E-04  5.0000E-04  5.0000E-04  5.0000E-04  5.0000E-04  5.0000E-04
       5.0000E-04  5.0000E-04  4.8000E-04   1.000      4.8000E-04
  36   2.4000E-04  2.4000E-04  2.4000E-04  2.6000E-04  2.6000E-04  2.8000E-04  2.8000E-04  3.0000E-04  3.0000E-04  3.2000E-04
       3.4000E-04  3.4000E-04  3.6000E-04  3.8000E-04  3.8000E-04  4.0000E-04  4.2000E-04  4.2000E-04  4.4000E-04  4.4000E-04
       4.6000E-04  4.6000E-04  4.8000E-04  4.8000E-04  4.8000E-04  4.8000E-04  5.0000E-04  5.0000E-04  5.0000E-04  5.0000E-04
       5.0000E-04   1.000       1.000       1.000       1.000    
  37   2.4000E-04  2.4000E-04  2.6000E-04  2.6000E-04  2.8000E-04  2.8000E-04  3.0000E-04  3.0000E-04  3.2000E-04  3.2000E-04
       3.4000E-04  3.4000E-04  3.6000E-04  3.8000E-04  3.8000E-04  4.0000E-04  4.2000E-04  4.2000E-04  4.4000E-04  4.4000E-04
       4.6000E-04  4.6000E-04  4.8000E-04  4.8000E-04  4.8000E-04  4.8000E-04  4.8000E-04  4.8000E-04  4.8000E-04  4.8000E-04
        1.000       1.000      4.8000E-04  4.8000E-04  4.8000E-04
  38   2.4000E-04  2.6000E-04  2.6000E-04  2.6000E-04  2.8000E-04  2.8000E-04  3.0000E-04  3.0000E-04  3.2000E-04  3.2000E-04
       3.4000E-04  3.6000E-04  3.6000E-04  3.8000E-04  3.8000E-04  4.0000E-04  4.2000E-04  4.2000E-04  4.4000E-04  4.4000E-04
       4.6000E-04  4.6000E-04  4.6000E-04  4.8000E-04  4.8000E-04  4.8000E-04  4.8000E-04  4.8000E-04  4.8000E-04   1.000    
        1.000      4.8000E-04  4.8000E-04  4.8000E-04  4.8000E-04
  39   2.6000E-04  2.6000E-04  2.6000E-04  2.8000E-04  2.8000E-04  3.0000E-04  3.0000E-04  3.2000E-04  3.2000E-04  3.4000E-04
       3.4000E-04  3.6000E-04  3.6000E-04  3.8000E-04  3.8000E-04  4.0000E-04  4.2000E-04  4.2000E-04  4.4000E-04  4.4000E-04
       4.4000E-04  4.6000E-04  4.6000E-04  4.6000E-04  4.8000E-04  4.8000E-04  4.8000E-04  4.8000E-04   1.000       1.000    
       4.8000E-04  4.8000E-04  4.8000E-04  4.8000E-04  4.8000E-04
  40   2.6000E-04  2.6000E-04  2.8000E-04  2.8000E-04  2.8000E-04  3.0000E-04  3.0000E-04  3.2000E-04  3.2000E-04  3.4000E-04
       3.4000E-04  3.6000E-04  3.6000E-04  3.8000E-04  3.8000E-04  4.0000E-04  4.0000E-04  4.2000E-04  4.2000E-04  4.4000E-04
       4.4000E-04  4.6000E-04  4.6000E-04  4.6000E-04  4.6000E-04  4.8000E-04   1.000       1.000       1.000      4.8000E-04
       4.8000E-04  4.8000E-04  4.8000E-04  4.8000E-04  4.8000E-04
  41   2.6000E-04  2.8000E-04  2.8000E-04  2.8000E-04  3.0000E-04  3.0000E-04  3.2000E-04  3.2000E-04  3.2000E-04  3.4000E-04
       3.4000E-04  3.6000E-04  3.6000E-04  3.8000E-04  3.8000E-04  4.0000E-04  4.0000E-04  4.2000E-04  4.2000E-04  4.4000E-04
       4.4000E-04   1.000       1.000       1.000       1.000       1.000       1.000      4.8000E-04  4.8000E-04  4.8000E-04
       4.8000E-04  4.8000E-04  4.8000E-04  4.8000E-04  4.8000E-04
  42   2.8000E-04  2.8000E-04  2.8000E-04  3.0000E-04  3.0000E-04  3.0000E-04  3.2000E-04  3.2000E-04  3.4000E-04  3.4000E-04
       3.6000E-04  3.6000E-04  3.8000E-04  3.8000E-04   1.000       1.000       1.000       1.000       1.000       1.000    
        1.000       1.000      4.6000E-04  4.6000E-04  4.6000E-04  4.6000E-04  4.6000E-04  4.6000E-04  4.8000E-04  4.8000E-04
       4.8000E-04  4.8000E-04  4.8000E-04  4.8000E-04  4.8000E-04
  43   2.8000E-04  2.8000E-04  2.8000E-04  3.0000E-04  3.0000E-04  3.2000E-04  3.2000E-04  3.2000E-04  3.4000E-04   1.000    
        1.000       1.000       1.000       1.000       1.000      4.0000E-04  4.0000E-04   1.000      4.2000E-04  4.2000E-04
       4.4000E-04  4.4000E-04  4.4000E-04  4.6000E-04  4.6000E-04  4.6000E-04  4.6000E-04  4.6000E-04  4.6000E-04  4.6000E-04
       4.8000E-04  4.8000E-04  4.8000E-04  4.8000E-04  4.6000E-04
  44   2.8000E-04  2.8000E-04   1.000       1.000       1.000       1.000       1.000       1.000       1.000       1.000    
       3.6000E-04  3.6000E-04  3.8000E-04  3.8000E-04  3.8000E-04  4.0000E-04  4.0000E-04  4.2000E-04  4.2000E-04  4.2000E-04
       4.4000E-04  4.4000E-04  4.4000E-04  4.4000E-04  4.6000E-04  4.6000E-04  4.6000E-04  4.6000E-04  4.6000E-04  4.6000E-04
       4.6000E-04  4.6000E-04  4.6000E-04  4.6000E-04  4.6000E-04
  45    1.000       1.000       1.000      3.0000E-04  3.2000E-04  3.2000E-04  3.2000E-04  3.4000E-04  3.4000E-04  3.4000E-04
       3.6000E-04  3.6000E-04  3.8000E-04  3.8000E-04  3.8000E-04  4.0000E-04  4.0000E-04  4.2000E-04  4.2000E-04  4.2000E-04
       4.4000E-04  4.4000E-04  4.4000E-04  4.4000E-04  4.6000E-04  4.6000E-04  4.6000E-04  4.6000E-04  4.6000E-04  4.6000E-04
       4.6000E-04  4.6000E-04  4.6000E-04  4.6000E-04  4.6000E-04

         SPECIFIC STORAGE =  1.000000E-05 FOR LAYER   3

           SPECIFIC YIELD =  0.200000     FOR LAYER   3



                   WETDRY PARAMETER FOR LAYER   3
 READING ON UNIT   14 WITH FORMAT: (FREE)              

            1           2           3           4           5           6           7           8           9          10
           11          12          13          14          15          16          17          18          19          20
           21          22          23          24          25          26          27          28          29          30
           31          32          33          34          35
 ........................................................................................................................
   1   0.1520      0.1520      0.1520      0.1519      0.1518      0.1517      0.1515      0.1514      0.1513      0.1511    
       0.1510      0.1508      0.1507      0.1506      0.1504      0.1503      0.1503      0.1503      0.1503      0.1503    
       0.1503      0.1503      0.1510      0.1522      0.1534      0.1546      0.1558      0.1570      0.1582      0.1594    
       0.1606      0.1619      0.1631      0.1643      0.1655    
   2   0.1520      0.1520      0.1520      0.1520      0.1518      0.1517      0.1516      0.1514      0.1513      0.1512    
       0.1510      0.1509      0.1508      0.1506      0.1505      0.1504      0.1503      0.1503      0.1503      0.1503    
       0.1503      0.1508      0.1520      0.1533      0.1545      0.1557      0.1569      0.1581      0.1593      0.1605    
       0.1617      0.1629      0.1642      0.1654      0.1665    
   3   0.1520      0.1520      0.1520      0.1520      0.1519      0.1518      0.1516      0.1515      0.1513      0.1512    
       0.1511      0.1509      0.1508      0.1507      0.1505      0.1504      0.1503      0.1503      0.1503      0.1503    
       0.1507      0.1519      0.1531      0.1543      0.1555      0.1568      0.1580      0.1592      0.1604      0.1616    
       0.1628      0.1640      0.1652      0.1664      0.1676    
   4   0.1520      0.1520      0.1520      0.1520      0.1519      0.1518      0.1517      0.1515      0.1514      0.1513    
       0.1511      0.1510      0.1509      0.1507      0.1506      0.1504      0.1503      0.1503      0.1503      0.1506    
       0.1518      0.1530      0.1542      0.1554      0.1566      0.1578      0.1591      0.1603      0.1615      0.1627    
       0.1639      0.1651      0.1663      0.1675      0.1687    
   5   0.1520      0.1520      0.1520      0.1520      0.1520      0.1518      0.1517      0.1516      0.1514      0.1513    
       0.1512      0.1510      0.1509      0.1508      0.1506      0.1505      0.1504      0.1503      0.1505      0.1517    
       0.1529      0.1541      0.1553      0.1565      0.1577      0.1589      0.1601      0.1614      0.1626      0.1638    
       0.1650      0.1662      0.1674      0.1686      0.1698    
   6   0.1520      0.1520      0.1520      0.1520      0.1520      0.1519      0.1518      0.1516      0.1515      0.1513    
       0.1512      0.1511      0.1509      0.1508      0.1507      0.1505      0.1504      0.1503      0.1515      0.1528    
       0.1540      0.1552      0.1564      0.1576      0.1588      0.1600      0.1612      0.1624      0.1637      0.1649    
       0.1661      0.1673      0.1685      0.1697      0.1709    
   7   0.1520      0.1520      0.1520      0.1520      0.1520      0.1519      0.1518      0.1517      0.1515      0.1514    
       0.1513      0.1511      0.1510      0.1509      0.1507      0.1492      0.1470      0.1541      0.1526      0.1538    
       0.1551      0.1563      0.1575      0.1587      0.1599      0.1611      0.1623      0.1635      0.1647      0.1660    
       0.1672      0.1684      0.1696      0.1708      0.1720    
   8   0.1520      0.1520      0.1520      0.1520      0.1520      0.1520      0.1518      0.1517      0.1516      0.1514    
       0.1513      0.1512      0.1499      0.1475      0.1450      0.1431      0.1501      0.1571      0.1641      0.1549    
       0.1561      0.1574      0.1586      0.1598      0.1610      0.1622      0.1634      0.1646      0.1658      0.1670    
       0.1683      0.1695      0.1707      0.1719      0.1731    
   9   0.1520      0.1520      0.1520      0.1520      0.1520      0.1520      0.1519      0.1518      0.1516      0.1505    
       0.1481      0.1457      0.1433      0.1409      0.1391      0.1461      0.1531      0.1601      0.1672      0.1742    
       0.1572      0.1584      0.1597      0.1609      0.1621      0.1633      0.1645      0.1657      0.1669      0.1681    
       0.1693      0.1706      0.1718      0.1730      0.1742    
  10   0.1520      0.1520      0.1520      0.1520      0.1520      0.1520      0.1512      0.1488      0.1464      0.1440    
       0.1416      0.1391      0.1367      0.1351      0.1421      0.1491      0.1561      0.1632      0.1702      0.1772    
       0.1842      0.1668      0.1607      0.1620      0.1632      0.1644      0.1656      0.1668      0.1680      0.1692    
       0.1704      0.1716      0.1729      0.1741      0.1752    
  11   0.1520      0.1520      0.1520      0.1520      0.1520      0.1520      0.1485      0.1422      0.1398      0.1374    
       0.1350      0.1326      0.1311      0.1381      0.1451      0.1521      0.1592      0.1662      0.1732      0.1802    
       0.1873      0.1943      0.1775      0.1630      0.1643      0.1655      0.1667      0.1679      0.1691      0.1703    
       0.1715      0.1727      0.1739      0.1752      0.1763    
  12   0.1520      0.1520      0.1520      0.1520      0.1520      0.1520      0.1477      0.1412      0.1347      0.1308    
       0.1284      0.1271      0.1341      0.1411      0.1482      0.1552      0.1622      0.1692      0.1762      0.1833    
       0.1903      0.1973      0.2043      0.1883      0.1653      0.1666      0.1678      0.1690      0.1702      0.1714    
       0.1726      0.1738      0.1750      0.1762      0.1774    
  13   0.1520      0.1520      0.1520      0.1520      0.1520      0.1525      0.1489      0.1418      0.1347      0.1275    
       0.1231      0.1301      0.1371      0.1442      0.1512      0.1582      0.1652      0.1723      0.1793      0.1863    
       0.1933      0.2003      0.2074      0.2144      0.1990      0.1676      0.1689      0.1701      0.1713      0.1725    
       0.1737      0.1749      0.1761      0.1773      0.1785    
  14   0.1520      0.1520      0.1520      0.1523      0.1548      0.1572      0.1586      0.1515      0.1443      0.1372    
       0.1343      0.1351      0.1409      0.1477      0.1545      0.1614      0.1683      0.1753      0.1823      0.1893    
       0.1964      0.2034      0.2104      0.2174      0.2244      0.2097      0.1699      0.1712      0.1724      0.1736    
       0.1748      0.1760      0.1772      0.1784      0.1796    
  15   0.1520      0.1522      0.1546      0.1570      0.1594      0.1619      0.1643      0.1611      0.1540      0.1468    
       0.1469      0.1477      0.1485      0.1518      0.1587      0.1655      0.1724      0.1792      0.1861      0.1929    
       0.1997      0.2066      0.2134      0.2205      0.2275      0.2345      0.2204      0.1722      0.1734      0.1747    
       0.1759      0.1771      0.1783      0.1795      0.1807    
  16   0.1544      0.1568      0.1593      0.1617      0.1641      0.1666      0.1690      0.1707      0.1636      0.1588    
       0.1596      0.1604      0.1612      0.1619      0.1628      0.1697      0.1765      0.1834      0.1902      0.1970    
       0.2039      0.2107      0.2176      0.2244      0.2313      0.2381      0.2449      0.2312      0.1745      0.1757    
       0.1770      0.1782      0.1794      0.1806      0.1818    
  17   0.1591      0.1615      0.1639      0.1664      0.1688      0.1712      0.1737      0.1761      0.1733      0.1714    
       0.1722      0.1730      0.1738      0.1746      0.1754      0.1762      0.1807      0.1875      0.1943      0.2012    
       0.2080      0.2149      0.2217      0.2286      0.2354      0.2422      0.2433      0.2354      0.2276      0.1768    
       0.1780      0.1793      0.1805      0.1817      0.1829    
  18   0.1638      0.1662      0.1686      0.1711      0.1735      0.1759      0.1783      0.1808      0.1832      0.1841    
       0.1849      0.1857      0.1864      0.1872      0.1880      0.1888      0.1896      0.1916      0.1985      0.2053    
       0.2122      0.2190      0.2259      0.2327      0.2395      0.2453      0.2375      0.2296      0.2218      0.2139    
       0.1794      0.1803      0.1816      0.1828      0.1830    
  19   0.1684      0.1709      0.1733      0.1757      0.1782      0.1806      0.1830      0.1830      0.1843      0.1882    
       0.1922      0.1962      0.1991      0.1999      0.2007      0.2014      0.2022      0.2030      0.2038      0.2095    
       0.2163      0.2232      0.2300      0.2368      0.2437      0.2395      0.2317      0.2238      0.2160      0.2081    
       0.2003      0.1901      0.1826      0.1830      0.1830    
  20   0.1731      0.1756      0.1780      0.1804      0.1828      0.1830      0.1830      0.1830      0.1854      0.1893    
       0.1933      0.1972      0.2012      0.2052      0.2091      0.2131      0.2149      0.2157      0.2164      0.2172    
       0.2205      0.2273      0.2341      0.2410      0.2416      0.2337      0.2259      0.2180      0.2102      0.2023    
       0.1945      0.1883      0.1830      0.1830      0.1830    
  21   0.1778      0.1802      0.1827      0.1830      0.1830      0.1830      0.1830      0.1830      0.1865      0.1904    
       0.1944      0.1983      0.2023      0.2063      0.2102      0.2142      0.2181      0.2221      0.2261      0.2299    
       0.2307      0.2315      0.2383      0.2436      0.2358      0.2279      0.2201      0.2140      0.2080      0.2019    
       0.1958      0.1898      0.1837      0.1830      0.1830    
  22   0.1825      0.1830      0.1830      0.1830      0.1830      0.1830      0.1830      0.1836      0.1875      0.1915    
       0.1955      0.1994      0.2034      0.2073      0.2113      0.2153      0.2192      0.2232      0.2271      0.2311    
       0.2351      0.2390      0.2430      0.2398      0.2337      0.2276      0.2216      0.2155      0.2094      0.2034    
       0.1973      0.1913      0.1852      0.1830      0.1830    
  23   0.1830      0.1830      0.1830      0.1830      0.1830      0.1830      0.1830      0.1847      0.1886      0.1926    
       0.1966      0.2005      0.2045      0.2084      0.2124      0.2164      0.2203      0.2243      0.2282      0.2322    
       0.2362      0.2401      0.2440      0.2413      0.2352      0.2291      0.2231      0.2170      0.2109      0.2049    
       0.1988      0.1927      0.1867      0.1830      0.1830    
  24   0.1830      0.1830      0.1830      0.1830      0.1830      0.1830      0.1830      0.1858      0.1897      0.1937    
       0.1976      0.2016      0.2056      0.2095      0.2135      0.2174      0.2214      0.2254      0.2293      0.2333    
       0.2372      0.2412      0.2440      0.2427      0.2367      0.2306      0.2245      0.2185      0.2124      0.2064    
       0.2003      0.1942      0.1882      0.1830      0.1830    
  25   0.1830      0.1830      0.1830      0.1830      0.1830      0.1830      0.1830      0.1868      0.1908      0.1948    
       0.1987      0.2027      0.2066      0.2106      0.2146      0.2185      0.2225      0.2264      0.2304      0.2344    
       0.2383      0.2423      0.2440      0.2440      0.2382      0.2321      0.2260      0.2200      0.2139      0.2078    
       0.2018      0.1957      0.1897      0.1836      0.1830    
  26   0.1830      0.1830      0.1830      0.1830      0.1830      0.1830      0.1840      0.1879      0.1919      0.1959    
       0.1998      0.2038      0.2077      0.2117      0.2157      0.2196      0.2236      0.2275      0.2315      0.2355    
       0.2394      0.2434      0.2440      0.2440      0.2397      0.2336      0.2275      0.2215      0.2154      0.2093    
       0.2033      0.1972      0.1911      0.1851      0.1830    
  27   0.1830      0.1830      0.1830      0.1830      0.1830      0.1830      0.1851      0.1890      0.1930      0.1969    
       0.2009      0.2049      0.2088      0.2128      0.2167      0.2207      0.2247      0.2286      0.2326      0.2365    
       0.2405      0.2440      0.2440      0.2440      0.2411      0.2351      0.2290      0.2230      0.2169      0.2108    
       0.2048      0.1987      0.1926      0.1866      0.1830    
  28   0.1830      0.1830      0.1830      0.1830      0.1830      0.1830      0.1862      0.1901      0.1941      0.1980    
       0.2020      0.2060      0.2099      0.2139      0.2178      0.2218      0.2258      0.2297      0.2337      0.2376    
       0.2416      0.2440      0.2440      0.2440      0.2426      0.2366      0.2305      0.2244      0.2184      0.2123    
       0.2063      0.2002      0.1941      0.1881      0.1830    
  29   0.1830      0.1830      0.1830      0.1830      0.1830      0.1833      0.1872      0.1912      0.1952      0.1991    
       0.2031      0.2070      0.2110      0.2150      0.2189      0.2229      0.2268      0.2308      0.2348      0.2387    
       0.2427      0.2440      0.2440      0.2440      0.2440      0.2381      0.2320      0.2259      0.2199      0.2138    
       0.2077      0.2017      0.1956      0.1895      0.1837    
  30   0.1830      0.1830      0.1830      0.1830      0.1830      0.1844      0.1883      0.1923      0.1962      0.2002    
       0.2042      0.2081      0.2121      0.2160      0.2200      0.2240      0.2279      0.2319      0.2358      0.2398    
       0.2438      0.2440      0.2440      0.2440      0.2440      0.2395      0.2335      0.2274      0.2214      0.2153    
       0.2092      0.2032      0.1971      0.1910      0.1851    
  31   0.1830      0.1830      0.1830      0.1830      0.1830      0.1855      0.1894      0.1934      0.1973      0.2013    
       0.2053      0.2092      0.2132      0.2171      0.2211      0.2251      0.2290      0.2330      0.2369      0.2409    
       0.2440      0.2440      0.2440      0.2440      0.2440      0.2410      0.2350      0.2289      0.2228      0.2168    
       0.2107      0.2047      0.1986      0.1925      0.1866    
  32   0.1830      0.1830      0.1830      0.1830      0.1830      0.1865      0.1905      0.1945      0.1984      0.2024    
       0.2063      0.2103      0.2143      0.2182      0.2222      0.2261      0.2301      0.2341      0.2380      0.2420    
       0.2440      0.2440      0.2440      0.2440      0.2440      0.2425      0.2365      0.2304      0.2243      0.2183    
       0.2122      0.2061      0.2001      0.1940      0.1881    
  33   0.1830      0.1830      0.1830      0.1830      0.1837      0.1876      0.1916      0.1956      0.1995      0.2035    
       0.2074      0.2114      0.2154      0.2193      0.2233      0.2272      0.2312      0.2352      0.2391      0.2431    
       0.2440      0.2440      0.2440      0.2440      0.2440      0.2440      0.2380      0.2319      0.2258      0.2198    
       0.2137      0.2076      0.2016      0.1955      0.1896    
  34   0.1830      0.1830      0.1830      0.1830      0.1848      0.1887      0.1927      0.1966      0.2006      0.2046    
       0.2085      0.2125      0.2164      0.2204      0.2244      0.2283      0.2323      0.2362      0.2402      0.2440    
       0.2440      0.2440      0.2440      0.2440      0.2440      0.2440      0.2394      0.2334      0.2273      0.2212    
       0.2152      0.2091      0.2031      0.1970      0.1911    
  35   0.1830      0.1830      0.1830      0.1830      0.1858      0.1898      0.1938      0.1977      0.2017      0.2056    
       0.2096      0.2136      0.2175      0.2215      0.2254      0.2294      0.2334      0.2373      0.2413      0.2440    
       0.2440      0.2440      0.2440      0.2440      0.2440      0.2440      0.2409      0.2349      0.2288      0.2227    
       0.2167      0.2106      0.2045      0.1985      0.1926    
  36   0.1830      0.1830      0.1830      0.1830      0.1869      0.1909      0.1949      0.1988      0.2028      0.2067    
       0.2107      0.2147      0.2186      0.2226      0.2265      0.2305      0.2345      0.2384      0.2424      0.2440    
       0.2440      0.2440      0.2440      0.2440      0.2440      0.2440      0.2424      0.2364      0.2303      0.2242    
       0.2182      0.2121      0.2060      0.2000      0.1941    
  37   0.1830      0.1830      0.1830      0.1841      0.1880      0.1920      0.1959      0.1999      0.2039      0.2078    
       0.2118      0.2157      0.2197      0.2237      0.2276      0.2316      0.2355      0.2395      0.2435      0.2440    
       0.2440      0.2440      0.2440      0.2440      0.2440      0.2440      0.2439      0.2378      0.2318      0.2257    
       0.2197      0.2136      0.2075      0.2015      0.1956    
  38   0.1830      0.1830      0.1830      0.1851      0.1891      0.1931      0.1970      0.2010      0.2050      0.2089    
       0.2129      0.2168      0.2208      0.2248      0.2287      0.2327      0.2366      0.2406      0.2440      0.2440    
       0.2440      0.2440      0.2440      0.2440      0.2440      0.2440      0.2440      0.2393      0.2333      0.2272    
       0.2211      0.2151      0.2090      0.2030      0.1971    
  39   0.1830      0.1830      0.1830      0.1862      0.1902      0.1942      0.1981      0.2021      0.2060      0.2100    
       0.2140      0.2179      0.2219      0.2258      0.2298      0.2338      0.2377      0.2417      0.2440      0.2440    
       0.2440      0.2440      0.2440      0.2440      0.2440      0.2440      0.2440      0.2408      0.2348      0.2287    
       0.2226      0.2166      0.2105      0.2044      0.1985    
  40   0.1830      0.1830      0.1834      0.1873      0.1913      0.1952      0.1992      0.2032      0.2071      0.2111    
       0.2150      0.2190      0.2230      0.2269      0.2309      0.2348      0.2388      0.2428      0.2440      0.2440    
       0.2440      0.2440      0.2440      0.2440      0.2440      0.2440      0.2440      0.2423      0.2362      0.2302    
       0.2241      0.2181      0.2120      0.2059      0.2000    
  41   0.1830      0.1830      0.1845      0.1884      0.1924      0.1963      0.2003      0.2043      0.2082      0.2122    
       0.2161      0.2201      0.2241      0.2280      0.2320      0.2359      0.2399      0.2439      0.2440      0.2440    
       0.2440      0.2440      0.2440      0.2440      0.2440      0.2440      0.2440      0.2438      0.2377      0.2317    
       0.2256      0.2195      0.2135      0.2074      0.2015    
  42   0.1830      0.1830      0.1855      0.1895      0.1935      0.1974      0.2014      0.2053      0.2093      0.2133    
       0.2172      0.2212      0.2251      0.2291      0.2331      0.2370      0.2410      0.2440      0.2440      0.2440    
       0.2440      0.2440      0.2440      0.2440      0.2440      0.2440      0.2440      0.2440      0.2392      0.2332    
       0.2271      0.2210      0.2150      0.2089      0.2030    
  43   0.1830      0.1830      0.1866      0.1906      0.1946      0.1985      0.2025      0.2064      0.2104      0.2144    
       0.2183      0.2223      0.2262      0.2302      0.2342      0.2381      0.2421      0.2440      0.2440      0.2440    
       0.2440      0.2440      0.2440      0.2440      0.2440      0.2440      0.2440      0.2440      0.2407      0.2347    
       0.2286      0.2225      0.2165      0.2104      0.2045    
  44   0.1830      0.1838      0.1877      0.1917      0.1956      0.1996      0.2036      0.2075      0.2115      0.2154    
       0.2194      0.2234      0.2273      0.2313      0.2352      0.2392      0.2432      0.2440      0.2440      0.2440    
       0.2440      0.2440      0.2440      0.2440      0.2440      0.2440      0.2440      0.2440      0.2422      0.2361    
       0.2301      0.2240      0.2180      0.2119      0.2060    
  45   0.1830      0.1848      0.1888      0.1928      0.1967      0.2007      0.2046      0.2086      0.2126      0.2165    
       0.2205      0.2244      0.2284      0.2324      0.2363      0.2403      0.2440      0.2440      0.2440      0.2440    
       0.2440      0.2440      0.2440      0.2440      0.2440      0.2440      0.2440      0.2440      0.2437      0.2376    
       0.2316      0.2255      0.2194      0.2134      0.2075    



              HYD. COND. ALONG ROWS FOR LAYER   4
 READING ON UNIT   14 WITH FORMAT: (FREE)              

            1           2           3           4           5           6           7           8           9          10
           11          12          13          14          15          16          17          18          19          20
           21          22          23          24          25          26          27          28          29          30
           31          32          33          34          35
 ........................................................................................................................
   1   3.2000E-03  3.2000E-03  3.2000E-03  3.2000E-03  3.2000E-03  3.2000E-03  3.2000E-03  3.2000E-03  3.2000E-03  3.2000E-03
       3.1000E-03  3.1000E-03  3.1000E-03  3.1000E-03  3.0000E-03  3.0000E-03  3.0000E-03  3.0000E-03  3.0000E-03  3.0000E-03
       3.0000E-03  3.0000E-03  3.1000E-03  3.1000E-03  3.1000E-03  3.1000E-03  3.2000E-03  3.2000E-03  3.2000E-03  3.2000E-03
       3.2000E-03  3.2000E-03  3.3000E-03  3.3000E-03  3.3000E-03
   2   3.2000E-03  3.2000E-03  3.2000E-03  3.2000E-03  3.2000E-03  3.2000E-03  3.2000E-03  3.2000E-03  3.2000E-03  3.2000E-03
       3.2000E-03  3.1000E-03  3.1000E-03  3.1000E-03  3.0000E-03  3.0000E-03  3.0000E-03  3.0000E-03  3.0000E-03  3.0000E-03
       3.0000E-03  3.0000E-03  3.1000E-03  3.1000E-03  3.1000E-03  3.1000E-03  3.2000E-03  3.2000E-03  3.2000E-03  3.2000E-03
       3.2000E-03  3.3000E-03  3.3000E-03  3.3000E-03  3.3000E-03
   3   3.2000E-03  3.2000E-03  3.3000E-03  3.3000E-03  3.3000E-03  3.3000E-03  3.3000E-03  3.2000E-03  3.2000E-03  3.2000E-03
       3.2000E-03  3.1000E-03  3.1000E-03  3.1000E-03  3.0000E-03  3.0000E-03  3.0000E-03  3.0000E-03  3.0000E-03  3.0000E-03
       3.0000E-03  3.0000E-03  3.1000E-03  3.1000E-03  3.1000E-03  3.2000E-03  3.2000E-03  3.2000E-03  3.2000E-03  3.2000E-03
       3.3000E-03  3.3000E-03  3.3000E-03  3.3000E-03  3.3000E-03
   4   3.2000E-03  3.3000E-03  3.3000E-03  3.3000E-03  3.3000E-03  3.3000E-03  3.3000E-03  3.3000E-03  3.2000E-03  3.2000E-03
       3.2000E-03  3.2000E-03  3.1000E-03  3.1000E-03  3.0000E-03  3.0000E-03  3.0000E-03  3.0000E-03  3.0000E-03  3.0000E-03
       3.0000E-03  3.1000E-03  3.1000E-03  3.1000E-03  3.1000E-03  3.2000E-03  3.2000E-03  3.2000E-03  3.2000E-03  3.3000E-03
       3.3000E-03  3.3000E-03  3.3000E-03  3.3000E-03  3.3000E-03
   5   3.2000E-03  3.3000E-03  3.3000E-03  3.3000E-03  3.3000E-03  3.3000E-03  3.3000E-03  3.3000E-03  3.3000E-03  3.2000E-03
       3.2000E-03  3.2000E-03  3.1000E-03  3.1000E-03  3.0000E-03  3.0000E-03  2.9000E-03  2.9000E-03  3.0000E-03  3.0000E-03
       3.0000E-03  3.1000E-03  3.1000E-03  3.1000E-03  3.2000E-03  3.2000E-03  3.2000E-03  3.2000E-03  3.3000E-03  3.3000E-03
       3.3000E-03  3.3000E-03  3.3000E-03  3.3000E-03  3.4000E-03
   6   3.2000E-03  3.3000E-03  3.3000E-03  3.3000E-03  3.3000E-03  3.4000E-03  3.3000E-03  3.3000E-03  3.3000E-03  3.3000E-03
       3.2000E-03  3.2000E-03  3.1000E-03  3.1000E-03  3.0000E-03  3.0000E-03  2.9000E-03  2.9000E-03  3.0000E-03  3.0000E-03
       3.1000E-03  3.1000E-03  3.1000E-03  3.2000E-03  3.2000E-03  3.2000E-03  3.2000E-03  3.3000E-03  3.3000E-03  3.3000E-03
       3.3000E-03  3.3000E-03  3.4000E-03  3.4000E-03  3.4000E-03
   7   3.2000E-03  3.3000E-03  3.3000E-03  3.3000E-03  3.4000E-03  3.4000E-03  3.4000E-03  3.4000E-03  3.3000E-03  3.3000E-03
       3.3000E-03  3.2000E-03  3.2000E-03  3.1000E-03  3.1000E-03  3.0000E-03  3.0000E-03  3.0000E-03  3.0000E-03  3.0000E-03
       3.1000E-03  3.1000E-03  3.2000E-03  3.2000E-03  3.2000E-03  3.3000E-03  3.3000E-03  3.3000E-03  3.3000E-03  3.3000E-03
       3.4000E-03  3.4000E-03  3.4000E-03  3.4000E-03  3.4000E-03
   8   3.2000E-03  3.3000E-03  3.3000E-03  3.3000E-03  3.4000E-03  3.4000E-03  3.4000E-03  3.4000E-03  3.4000E-03  3.3000E-03
       3.3000E-03  3.3000E-03  3.2000E-03  3.2000E-03  3.1000E-03  3.1000E-03  3.0000E-03  3.0000E-03  3.1000E-03  3.1000E-03
       3.1000E-03  3.2000E-03  3.2000E-03  3.2000E-03  3.3000E-03  3.3000E-03  3.3000E-03  3.3000E-03  3.4000E-03  3.4000E-03
       3.4000E-03  3.4000E-03  3.4000E-03  3.4000E-03  3.4000E-03
   9   3.2000E-03  3.2000E-03  3.3000E-03  3.3000E-03  3.4000E-03  3.5000E-03  3.5000E-03  3.4000E-03  3.4000E-03  3.4000E-03
       3.3000E-03  3.3000E-03  3.3000E-03  3.2000E-03  3.2000E-03  3.1000E-03  3.1000E-03  3.1000E-03  3.1000E-03  3.1000E-03
       3.2000E-03  3.2000E-03  3.2000E-03  3.3000E-03  3.3000E-03  3.3000E-03  3.4000E-03  3.4000E-03  3.4000E-03  3.4000E-03
       3.4000E-03  3.4000E-03  3.4000E-03  3.4000E-03  3.4000E-03
  10   3.2000E-03  3.2000E-03  3.3000E-03  3.3000E-03  3.4000E-03  3.5000E-03  3.5000E-03  3.4000E-03  3.4000E-03  3.4000E-03
       3.4000E-03  3.3000E-03  3.3000E-03  3.3000E-03  3.2000E-03  3.2000E-03  3.2000E-03  3.2000E-03  3.2000E-03  3.2000E-03
       3.2000E-03  3.3000E-03  3.3000E-03  3.3000E-03  3.4000E-03  3.4000E-03  3.4000E-03  3.4000E-03  3.4000E-03  3.4000E-03
       3.4000E-03  3.5000E-03  3.5000E-03  3.5000E-03  3.5000E-03
  11   3.1000E-03  3.2000E-03  3.2000E-03  3.2000E-03  3.3000E-03  3.4000E-03  3.4000E-03  3.4000E-03  3.4000E-03  3.4000E-03
       3.4000E-03  3.3000E-03  3.3000E-03  3.3000E-03  3.3000E-03  3.2000E-03  3.2000E-03  3.2000E-03  3.3000E-03  3.3000E-03
       3.3000E-03  3.3000E-03  3.4000E-03  3.4000E-03  3.4000E-03  3.4000E-03  3.4000E-03  3.5000E-03  3.5000E-03  3.5000E-03
       3.5000E-03  3.5000E-03  3.5000E-03  3.5000E-03  3.5000E-03
  12   3.1000E-03  3.1000E-03  3.1000E-03  3.1000E-03  3.2000E-03  3.2000E-03  3.2000E-03  3.3000E-03  3.3000E-03  3.4000E-03
       3.4000E-03  3.4000E-03  3.3000E-03  3.3000E-03  3.3000E-03  3.3000E-03  3.3000E-03  3.3000E-03  3.3000E-03  3.3000E-03
       3.4000E-03  3.4000E-03  3.4000E-03  3.4000E-03  3.5000E-03  3.5000E-03  3.5000E-03  3.5000E-03  3.5000E-03  3.5000E-03
       3.5000E-03  3.5000E-03  3.5000E-03  3.5000E-03  3.5000E-03
  13   3.1000E-03  3.1000E-03  3.1000E-03  3.1000E-03  3.0000E-03  3.0000E-03  3.1000E-03  3.2000E-03  3.3000E-03  3.4000E-03
       3.4000E-03  3.4000E-03  3.3000E-03  3.3000E-03  3.3000E-03  3.3000E-03  3.3000E-03  3.4000E-03  3.4000E-03  3.4000E-03
       3.4000E-03  3.4000E-03  3.5000E-03  3.5000E-03  3.5000E-03  3.5000E-03  3.5000E-03  3.5000E-03  3.5000E-03  3.5000E-03
       3.5000E-03  3.5000E-03  3.5000E-03  3.5000E-03  3.5000E-03
  14   3.0000E-03  3.0000E-03  3.0000E-03  3.0000E-03  3.0000E-03  3.0000E-03  3.0000E-03  3.1000E-03  3.2000E-03  3.3000E-03
       3.3000E-03  3.3000E-03  3.3000E-03  3.3000E-03  3.4000E-03  3.4000E-03  3.4000E-03  3.4000E-03  3.4000E-03  3.5000E-03
       3.5000E-03  3.5000E-03  3.5000E-03  3.6000E-03  3.6000E-03  3.6000E-03  3.6000E-03  3.6000E-03  3.6000E-03  3.6000E-03
       3.6000E-03  3.6000E-03  3.6000E-03  3.6000E-03  3.6000E-03
  15   3.0000E-03  3.0000E-03  3.0000E-03  2.9000E-03  2.9000E-03  2.9000E-03  3.0000E-03  3.0000E-03  3.1000E-03  3.2000E-03
       3.2000E-03  3.3000E-03  3.3000E-03  3.3000E-03  3.4000E-03  3.4000E-03  3.4000E-03  3.4000E-03  3.5000E-03  3.5000E-03
       3.5000E-03  3.6000E-03  3.6000E-03  3.6000E-03  3.6000E-03  3.6000E-03  3.6000E-03  3.6000E-03  3.6000E-03  3.6000E-03
       3.6000E-03  3.6000E-03  3.6000E-03  3.6000E-03  3.6000E-03
  16   3.0000E-03  2.9000E-03  2.9000E-03  2.9000E-03  2.9000E-03  2.9000E-03  2.9000E-03  3.0000E-03  3.0000E-03  3.1000E-03
       3.2000E-03  3.2000E-03  3.3000E-03  3.3000E-03  3.4000E-03  3.4000E-03  3.5000E-03  3.5000E-03  3.5000E-03  3.6000E-03
       3.6000E-03  3.6000E-03  3.7000E-03  3.7000E-03  3.7000E-03  3.7000E-03  3.7000E-03  3.7000E-03  3.7000E-03  3.7000E-03
       3.6000E-03  3.6000E-03  3.6000E-03  3.6000E-03  3.6000E-03
  17   2.9000E-03  2.9000E-03  2.9000E-03  2.9000E-03  2.9000E-03  2.9000E-03  2.9000E-03  2.9000E-03  2.9000E-03  3.0000E-03
       3.1000E-03  3.2000E-03  3.3000E-03  3.3000E-03  3.4000E-03  3.4000E-03  3.5000E-03  3.5000E-03  3.6000E-03  3.6000E-03
       3.7000E-03  3.7000E-03  3.7000E-03  3.7000E-03  3.9000E-03  3.9000E-03  3.7000E-03  3.7000E-03  3.7000E-03  3.7000E-03
       3.7000E-03  3.7000E-03  3.6000E-03  3.6000E-03  3.6000E-03
  18   2.9000E-03  2.9000E-03  2.9000E-03  2.9000E-03  2.9000E-03  2.8000E-03  2.8000E-03  2.8000E-03  2.9000E-03  3.0000E-03
       3.1000E-03  3.2000E-03  3.2000E-03  3.3000E-03  3.4000E-03  3.4000E-03  3.5000E-03  3.6000E-03  3.6000E-03  3.7000E-03
       3.7000E-03  3.9000E-03  3.9000E-03  3.9000E-03  3.9000E-03  3.9000E-03  3.9000E-03  3.9000E-03  3.9000E-03  3.7000E-03
       3.7000E-03  3.7000E-03  3.7000E-03  3.7000E-03  3.7000E-03
  19   2.9000E-03  2.9000E-03  2.9000E-03  2.9000E-03  2.9000E-03  2.8000E-03  2.8000E-03  2.8000E-03  2.9000E-03  3.0000E-03
       3.1000E-03  3.2000E-03  3.2000E-03  3.3000E-03  3.4000E-03  3.5000E-03  3.5000E-03  3.6000E-03  3.7000E-03  3.7000E-03
       3.9000E-03  3.9000E-03  4.0000E-03  4.0000E-03  4.0000E-03  4.0000E-03  3.9000E-03  3.9000E-03  3.9000E-03  3.9000E-03
       3.7000E-03  3.7000E-03  3.7000E-03  3.7000E-03  3.7000E-03
  20   2.9000E-03  2.9000E-03  2.9000E-03  2.9000E-03  2.9000E-03  2.9000E-03  2.9000E-03  2.9000E-03  2.9000E-03  3.0000E-03
       3.1000E-03  3.2000E-03  3.2000E-03  3.3000E-03  3.4000E-03  3.5000E-03  3.6000E-03  3.6000E-03  3.7000E-03  3.9000E-03
       3.9000E-03  4.0000E-03  4.0000E-03  4.0000E-03  4.0000E-03  4.0000E-03  4.0000E-03  4.0000E-03  3.9000E-03  3.9000E-03
       3.9000E-03  3.7000E-03  3.7000E-03  3.7000E-03  3.7000E-03
  21   2.9000E-03  2.9000E-03  2.9000E-03  2.9000E-03  2.9000E-03  2.9000E-03  2.9000E-03  2.9000E-03  3.0000E-03  3.0000E-03
       3.1000E-03  3.2000E-03  3.3000E-03  3.3000E-03  3.4000E-03  3.5000E-03  3.6000E-03  3.7000E-03  3.7000E-03  3.9000E-03
       4.0000E-03  4.1000E-03  4.1000E-03  4.1000E-03  4.1000E-03  4.1000E-03  4.0000E-03  4.0000E-03  3.9000E-03  3.9000E-03
       3.9000E-03  3.9000E-03  3.7000E-03  3.7000E-03  3.7000E-03
  22   2.9000E-03  2.9000E-03  2.9000E-03  2.9000E-03  2.9000E-03  2.9000E-03  2.9000E-03  3.0000E-03  3.0000E-03  3.1000E-03
       3.1000E-03  3.2000E-03  3.3000E-03  3.4000E-03  3.4000E-03  3.5000E-03  3.6000E-03  3.7000E-03  3.9000E-03  4.0000E-03
       4.0000E-03  4.1000E-03  4.2000E-03  4.2000E-03  4.1000E-03  4.1000E-03  4.0000E-03  4.0000E-03  4.0000E-03  3.9000E-03
       3.9000E-03  3.9000E-03  3.9000E-03  3.7000E-03  3.7000E-03
  23   3.0000E-03  3.0000E-03  3.0000E-03  3.0000E-03  3.0000E-03  3.0000E-03  3.0000E-03  3.0000E-03  3.1000E-03  3.1000E-03
       3.2000E-03  3.2000E-03  3.3000E-03  3.4000E-03  3.5000E-03  3.5000E-03  3.6000E-03  3.7000E-03  3.9000E-03  4.0000E-03
       4.0000E-03  4.1000E-03  4.2000E-03  4.2000E-03  4.1000E-03  4.1000E-03  4.1000E-03  4.0000E-03  4.0000E-03  4.0000E-03
       3.9000E-03  3.9000E-03  3.9000E-03  3.9000E-03  3.9000E-03
  24   3.0000E-03  3.0000E-03  3.0000E-03  3.0000E-03  3.0000E-03  3.0000E-03  3.0000E-03  3.1000E-03  3.1000E-03  3.1000E-03
       3.2000E-03  3.3000E-03  3.3000E-03  3.4000E-03  3.5000E-03  3.6000E-03  3.6000E-03  3.7000E-03  3.9000E-03  4.0000E-03
       4.0000E-03  4.1000E-03  4.1000E-03  4.1000E-03  4.1000E-03  4.1000E-03  4.1000E-03  4.0000E-03  4.0000E-03  4.0000E-03
       3.9000E-03  3.9000E-03  3.9000E-03  3.9000E-03  3.9000E-03
  25   3.0000E-03  3.0000E-03  3.0000E-03  3.0000E-03  3.0000E-03  3.0000E-03  3.1000E-03  3.1000E-03  3.1000E-03  3.2000E-03
       3.2000E-03  3.3000E-03  3.4000E-03  3.4000E-03  3.5000E-03  3.6000E-03  3.6000E-03  3.7000E-03  3.9000E-03  4.0000E-03
       4.0000E-03  4.1000E-03  4.1000E-03  4.1000E-03  4.1000E-03  4.1000E-03  4.1000E-03  4.0000E-03  4.0000E-03  4.0000E-03
       4.0000E-03  3.9000E-03  3.9000E-03  3.9000E-03  3.9000E-03
  26   3.0000E-03  3.0000E-03  3.0000E-03  3.0000E-03  3.1000E-03  3.1000E-03  3.1000E-03  3.1000E-03  3.2000E-03  3.2000E-03
       3.3000E-03  3.3000E-03  3.4000E-03  3.4000E-03  3.5000E-03  3.6000E-03  3.6000E-03  3.7000E-03  3.9000E-03  3.9000E-03
       4.0000E-03  4.0000E-03  4.1000E-03  4.1000E-03  4.1000E-03  4.1000E-03  4.1000E-03  4.0000E-03  4.0000E-03  4.0000E-03
       4.0000E-03  3.9000E-03  3.9000E-03  3.9000E-03  3.9000E-03
  27   3.0000E-03  3.0000E-03  3.1000E-03  3.1000E-03  3.1000E-03  3.1000E-03  3.1000E-03  3.2000E-03  3.2000E-03  3.2000E-03
       3.3000E-03  3.3000E-03  3.4000E-03  3.5000E-03  3.5000E-03  3.6000E-03  3.6000E-03  3.7000E-03  3.9000E-03  3.9000E-03
       4.0000E-03  4.0000E-03  4.0000E-03  4.0000E-03  4.1000E-03  4.0000E-03  4.0000E-03  4.0000E-03  4.0000E-03  4.0000E-03
       4.0000E-03  4.0000E-03  3.9000E-03  3.9000E-03  3.9000E-03
  28   3.1000E-03  3.1000E-03  3.1000E-03  3.1000E-03  3.1000E-03  3.1000E-03  3.2000E-03  3.2000E-03  3.2000E-03  3.3000E-03
       3.3000E-03  3.4000E-03  3.4000E-03  3.5000E-03  3.5000E-03  3.6000E-03  3.6000E-03  3.7000E-03  3.9000E-03  3.9000E-03
       3.9000E-03  4.0000E-03  4.0000E-03  4.0000E-03  4.0000E-03  4.0000E-03  4.0000E-03  4.0000E-03  4.0000E-03  4.0000E-03
       4.0000E-03  4.0000E-03  3.9000E-03  3.9000E-03  3.9000E-03
  29   3.1000E-03  3.1000E-03  3.1000E-03  3.1000E-03  3.1000E-03  3.2000E-03  3.2000E-03  3.2000E-03  3.3000E-03  3.3000E-03
       3.3000E-03  3.4000E-03  3.4000E-03  3.5000E-03  3.5000E-03  3.6000E-03  3.6000E-03  3.7000E-03  3.7000E-03  3.9000E-03
       3.9000E-03  4.0000E-03  4.0000E-03  4.0000E-03  4.0000E-03  4.0000E-03  4.0000E-03  4.0000E-03  4.0000E-03  4.0000E-03
       4.0000E-03  4.0000E-03  3.9000E-03  3.9000E-03  3.9000E-03
  30   3.1000E-03  3.1000E-03  3.1000E-03  3.1000E-03  3.2000E-03  3.2000E-03  3.2000E-03  3.2000E-03  3.3000E-03  3.3000E-03
       3.4000E-03  3.4000E-03  3.4000E-03  3.5000E-03  3.5000E-03  3.6000E-03  3.6000E-03  3.7000E-03  3.7000E-03  3.9000E-03
       3.9000E-03  3.9000E-03  4.0000E-03  4.0000E-03  4.0000E-03  4.0000E-03  4.0000E-03  4.0000E-03  4.0000E-03  4.0000E-03
       4.0000E-03  4.0000E-03  3.9000E-03  3.9000E-03  3.9000E-03
  31   3.1000E-03  3.1000E-03  3.2000E-03  3.2000E-03  3.2000E-03  3.2000E-03  3.2000E-03  3.3000E-03  3.3000E-03  3.3000E-03
       3.4000E-03  3.4000E-03  3.5000E-03  3.5000E-03  3.5000E-03  3.6000E-03  3.6000E-03  3.7000E-03  3.7000E-03  3.9000E-03
       3.9000E-03  3.9000E-03  3.9000E-03  4.0000E-03  4.0000E-03  4.0000E-03  4.0000E-03  4.0000E-03  4.0000E-03  4.0000E-03
       4.0000E-03  4.0000E-03  3.9000E-03  3.9000E-03  3.9000E-03
  32   3.1000E-03  3.2000E-03  3.2000E-03  3.2000E-03  3.2000E-03  3.2000E-03  3.3000E-03  3.3000E-03  3.3000E-03  3.4000E-03
       3.4000E-03  3.4000E-03  3.5000E-03  3.5000E-03  3.6000E-03  3.6000E-03  3.6000E-03  3.7000E-03  3.7000E-03  3.7000E-03
       3.9000E-03  3.9000E-03  3.9000E-03  3.9000E-03  3.9000E-03  4.0000E-03  4.0000E-03  4.0000E-03  4.0000E-03  4.0000E-03
       4.0000E-03  3.9000E-03  3.9000E-03  3.9000E-03  3.9000E-03
  33   3.2000E-03  3.2000E-03  3.2000E-03  3.2000E-03  3.2000E-03  3.3000E-03  3.3000E-03  3.3000E-03  3.3000E-03  3.4000E-03
       3.4000E-03  3.4000E-03  3.5000E-03  3.5000E-03  3.6000E-03  3.6000E-03  3.6000E-03  3.7000E-03  3.7000E-03  3.7000E-03
       3.9000E-03  3.9000E-03  3.9000E-03  3.9000E-03  3.9000E-03  3.9000E-03  3.9000E-03  4.0000E-03  4.0000E-03  3.9000E-03
       3.9000E-03  3.9000E-03  3.9000E-03  3.9000E-03  3.9000E-03
  34   3.2000E-03  3.2000E-03  3.2000E-03  3.2000E-03  3.2000E-03  3.3000E-03  3.3000E-03  3.3000E-03  3.4000E-03  3.4000E-03
       3.4000E-03  3.4000E-03  3.5000E-03  3.5000E-03  3.6000E-03  3.6000E-03  3.6000E-03  3.7000E-03  3.7000E-03  3.7000E-03
       3.7000E-03  3.9000E-03  3.9000E-03  3.9000E-03  3.9000E-03  3.9000E-03  3.9000E-03  3.9000E-03  3.9000E-03  3.9000E-03
       3.9000E-03  3.9000E-03  3.9000E-03  3.9000E-03  3.9000E-03
  35   3.2000E-03  3.2000E-03  3.2000E-03  3.2000E-03  3.3000E-03  3.3000E-03  3.3000E-03  3.3000E-03  3.4000E-03  3.4000E-03
       3.4000E-03  3.5000E-03  3.5000E-03  3.5000E-03  3.6000E-03  3.6000E-03  3.6000E-03  3.7000E-03  3.7000E-03  3.7000E-03
       3.7000E-03  3.9000E-03  3.9000E-03  3.9000E-03  3.9000E-03  3.9000E-03  3.9000E-03  3.9000E-03  3.9000E-03  3.9000E-03
       3.9000E-03  3.9000E-03  3.9000E-03  3.9000E-03  3.9000E-03
  36   3.2000E-03  3.2000E-03  3.2000E-03  3.3000E-03  3.3000E-03  3.3000E-03  3.3000E-03  3.4000E-03  3.4000E-03  3.4000E-03
       3.4000E-03  3.5000E-03  3.5000E-03  3.5000E-03  3.6000E-03  3.6000E-03  3.6000E-03  3.6000E-03  3.7000E-03  3.7000E-03
       3.7000E-03  3.7000E-03  3.9000E-03  3.9000E-03  3.9000E-03  3.9000E-03  3.9000E-03  3.9000E-03  3.9000E-03  3.9000E-03
       3.9000E-03  3.9000E-03  3.9000E-03  3.9000E-03  3.9000E-03
  37   3.2000E-03  3.2000E-03  3.3000E-03  3.3000E-03  3.3000E-03  3.3000E-03  3.3000E-03  3.4000E-03  3.4000E-03  3.4000E-03
       3.4000E-03  3.5000E-03  3.5000E-03  3.5000E-03  3.6000E-03  3.6000E-03  3.6000E-03  3.6000E-03  3.7000E-03  3.7000E-03
       3.7000E-03  3.7000E-03  3.9000E-03  3.9000E-03  3.9000E-03  3.9000E-03  3.9000E-03  3.9000E-03  3.9000E-03  3.9000E-03
       3.9000E-03  3.9000E-03  3.9000E-03  3.9000E-03  3.9000E-03
  38   3.2000E-03  3.3000E-03  3.3000E-03  3.3000E-03  3.3000E-03  3.3000E-03  3.4000E-03  3.4000E-03  3.4000E-03  3.4000E-03
       3.5000E-03  3.5000E-03  3.5000E-03  3.5000E-03  3.6000E-03  3.6000E-03  3.6000E-03  3.6000E-03  3.7000E-03  3.7000E-03
       3.7000E-03  3.7000E-03  3.7000E-03  3.9000E-03  3.9000E-03  3.9000E-03  3.9000E-03  3.9000E-03  3.9000E-03  3.9000E-03
       3.9000E-03  3.9000E-03  3.9000E-03  3.9000E-03  3.9000E-03
  39   3.3000E-03  3.3000E-03  3.3000E-03  3.3000E-03  3.3000E-03  3.3000E-03  3.4000E-03  3.4000E-03  3.4000E-03  3.4000E-03
       3.5000E-03  3.5000E-03  3.5000E-03  3.5000E-03  3.6000E-03  3.6000E-03  3.6000E-03  3.6000E-03  3.7000E-03  3.7000E-03
       3.7000E-03  3.7000E-03  3.7000E-03  3.7000E-03  3.9000E-03  3.9000E-03  3.9000E-03  3.9000E-03  3.9000E-03  3.9000E-03
       3.9000E-03  3.9000E-03  3.9000E-03  3.9000E-03  3.9000E-03
  40   3.3000E-03  3.3000E-03  3.3000E-03  3.3000E-03  3.3000E-03  3.4000E-03  3.4000E-03  3.4000E-03  3.4000E-03  3.4000E-03
       3.5000E-03  3.5000E-03  3.5000E-03  3.5000E-03  3.6000E-03  3.6000E-03  3.6000E-03  3.6000E-03  3.6000E-03  3.7000E-03
       3.7000E-03  3.7000E-03  3.7000E-03  3.7000E-03  3.7000E-03  3.9000E-03  3.9000E-03  3.9000E-03  3.9000E-03  3.9000E-03
       3.9000E-03  3.9000E-03  3.9000E-03  3.9000E-03  3.9000E-03
  41   3.3000E-03  3.3000E-03  3.3000E-03  3.3000E-03  3.3000E-03  3.4000E-03  3.4000E-03  3.4000E-03  3.4000E-03  3.4000E-03
       3.5000E-03  3.5000E-03  3.5000E-03  3.5000E-03  3.6000E-03  3.6000E-03  3.6000E-03  3.6000E-03  3.6000E-03  3.7000E-03
       3.7000E-03  3.7000E-03  3.7000E-03  3.7000E-03  3.7000E-03  3.7000E-03  3.9000E-03  3.9000E-03  3.9000E-03  3.9000E-03
       3.9000E-03  3.9000E-03  3.9000E-03  3.9000E-03  3.9000E-03
  42   3.3000E-03  3.3000E-03  3.3000E-03  3.3000E-03  3.4000E-03  3.4000E-03  3.4000E-03  3.4000E-03  3.4000E-03  3.5000E-03
       3.5000E-03  3.5000E-03  3.5000E-03  3.5000E-03  3.6000E-03  3.6000E-03  3.6000E-03  3.6000E-03  3.6000E-03  3.7000E-03
       3.7000E-03  3.7000E-03  3.7000E-03  3.7000E-03  3.7000E-03  3.7000E-03  3.9000E-03  3.9000E-03  3.9000E-03  3.9000E-03
       3.9000E-03  3.9000E-03  3.9000E-03  3.9000E-03  3.9000E-03
  43   3.3000E-03  3.3000E-03  3.3000E-03  3.3000E-03  3.4000E-03  3.4000E-03  3.4000E-03  3.4000E-03  3.4000E-03  3.5000E-03
       3.5000E-03  3.5000E-03  3.5000E-03  3.5000E-03  3.6000E-03  3.6000E-03  3.6000E-03  3.6000E-03  3.6000E-03  3.7000E-03
       3.7000E-03  3.7000E-03  3.7000E-03  3.7000E-03  3.7000E-03  3.7000E-03  3.7000E-03  3.9000E-03  3.9000E-03  3.9000E-03
       3.9000E-03  3.9000E-03  3.9000E-03  3.9000E-03  3.9000E-03
  44   3.3000E-03  3.3000E-03  3.3000E-03  3.4000E-03  3.4000E-03  3.4000E-03  3.4000E-03  3.4000E-03  3.4000E-03  3.5000E-03
       3.5000E-03  3.5000E-03  3.5000E-03  3.5000E-03  3.6000E-03  3.6000E-03  3.6000E-03  3.6000E-03  3.6000E-03  3.6000E-03
       3.7000E-03  3.7000E-03  3.7000E-03  3.7000E-03  3.7000E-03  3.7000E-03  3.7000E-03  3.7000E-03  3.9000E-03  3.9000E-03
       3.9000E-03  3.9000E-03  3.9000E-03  3.9000E-03  3.9000E-03
  45   3.3000E-03  3.3000E-03  3.3000E-03  3.4000E-03  3.4000E-03  3.4000E-03  3.4000E-03  3.4000E-03  3.4000E-03  3.5000E-03
       3.5000E-03  3.5000E-03  3.5000E-03  3.5000E-03  3.6000E-03  3.6000E-03  3.6000E-03  3.6000E-03  3.6000E-03  3.6000E-03
       3.7000E-03  3.7000E-03  3.7000E-03  3.7000E-03  3.7000E-03  3.7000E-03  3.7000E-03  3.7000E-03  3.7000E-03  3.7000E-03
       3.9000E-03  3.9000E-03  3.9000E-03  3.9000E-03  3.9000E-03

   HORIZ. ANI. (COL./ROW) =   1.00000     FOR LAYER   4



                VERTICAL HYD. COND. FOR LAYER   4
 READING ON UNIT   14 WITH FORMAT: (FREE)              

            1           2           3           4           5           6           7           8           9          10
           11          12          13          14          15          16          17          18          19          20
           21          22          23          24          25          26          27          28          29          30
           31          32          33          34          35
 ........................................................................................................................
   1   6.4000E-04  6.4000E-04  6.4000E-04  6.4000E-04  6.4000E-04  6.4000E-04  6.4000E-04  6.4000E-04  6.4000E-04  6.4000E-04
       6.2000E-04  6.2000E-04  6.2000E-04  6.2000E-04  6.0000E-04  6.0000E-04  6.0000E-04  6.0000E-04  6.0000E-04  6.0000E-04
       6.0000E-04  6.0000E-04  6.2000E-04  6.2000E-04  6.2000E-04  6.2000E-04  6.4000E-04  6.4000E-04  6.4000E-04  6.4000E-04
       6.4000E-04  6.4000E-04  6.6000E-04  6.6000E-04  6.6000E-04
   2   6.4000E-04  6.4000E-04  6.4000E-04  6.4000E-04  6.4000E-04  6.4000E-04  6.4000E-04  6.4000E-04  6.4000E-04  6.4000E-04
       6.4000E-04  6.2000E-04  6.2000E-04  6.2000E-04  6.0000E-04  6.0000E-04  6.0000E-04  6.0000E-04  6.0000E-04  6.0000E-04
       6.0000E-04  6.0000E-04  6.2000E-04  6.2000E-04  6.2000E-04  6.2000E-04  6.4000E-04  6.4000E-04  6.4000E-04  6.4000E-04
       6.4000E-04  6.6000E-04  6.6000E-04  6.6000E-04  6.6000E-04
   3   6.4000E-04  6.4000E-04  6.6000E-04  6.6000E-04  6.6000E-04  6.6000E-04  6.6000E-04  6.4000E-04  6.4000E-04  6.4000E-04
       6.4000E-04  6.2000E-04  6.2000E-04  6.2000E-04  6.0000E-04  6.0000E-04  6.0000E-04  6.0000E-04  6.0000E-04  6.0000E-04
       6.0000E-04  6.0000E-04  6.2000E-04  6.2000E-04  6.2000E-04  6.4000E-04  6.4000E-04  6.4000E-04  6.4000E-04  6.4000E-04
       6.6000E-04  6.6000E-04  6.6000E-04  6.6000E-04  6.6000E-04
   4   6.4000E-04  6.6000E-04  6.6000E-04  6.6000E-04  6.6000E-04  6.6000E-04  6.6000E-04  6.6000E-04  6.4000E-04  6.4000E-04
       6.4000E-04  6.4000E-04  6.2000E-04  6.2000E-04  6.0000E-04  6.0000E-04  6.0000E-04  6.0000E-04  6.0000E-04  6.0000E-04
       6.0000E-04  6.2000E-04  6.2000E-04  6.2000E-04  6.2000E-04  6.4000E-04  6.4000E-04  6.4000E-04  6.4000E-04  6.6000E-04
       6.6000E-04  6.6000E-04  6.6000E-04  6.6000E-04  6.6000E-04
   5   6.4000E-04  6.6000E-04  6.6000E-04  6.6000E-04  6.6000E-04  6.6000E-04  6.6000E-04  6.6000E-04  6.6000E-04  6.4000E-04
       6.4000E-04  6.4000E-04  6.2000E-04  6.2000E-04  6.0000E-04  6.0000E-04  5.8000E-04  5.8000E-04  6.0000E-04  6.0000E-04
       6.0000E-04  6.2000E-04  6.2000E-04  6.2000E-04  6.4000E-04  6.4000E-04  6.4000E-04  6.4000E-04  6.6000E-04  6.6000E-04
       6.6000E-04  6.6000E-04  6.6000E-04  6.6000E-04  6.8000E-04
   6   6.4000E-04  6.6000E-04  6.6000E-04  6.6000E-04  6.6000E-04  6.8000E-04  6.6000E-04  6.6000E-04  6.6000E-04  6.6000E-04
       6.4000E-04  6.4000E-04  6.2000E-04  6.2000E-04  6.0000E-04  6.0000E-04  5.8000E-04  5.8000E-04  6.0000E-04  6.0000E-04
       6.2000E-04  6.2000E-04  6.2000E-04  6.4000E-04  6.4000E-04  6.4000E-04  6.4000E-04  6.6000E-04  6.6000E-04  6.6000E-04
       6.6000E-04  6.6000E-04  6.8000E-04  6.8000E-04  6.8000E-04
   7   6.4000E-04  6.6000E-04  6.6000E-04  6.6000E-04  6.8000E-04  6.8000E-04  6.8000E-04  6.8000E-04  6.6000E-04  6.6000E-04
       6.6000E-04  6.4000E-04  6.4000E-04  6.2000E-04  6.2000E-04  6.0000E-04  6.0000E-04  6.0000E-04  6.0000E-04  6.0000E-04
       6.2000E-04  6.2000E-04  6.4000E-04  6.4000E-04  6.4000E-04  6.6000E-04  6.6000E-04  6.6000E-04  6.6000E-04  6.6000E-04
       6.8000E-04  6.8000E-04  6.8000E-04  6.8000E-04  6.8000E-04
   8   6.4000E-04  6.6000E-04  6.6000E-04  6.6000E-04  6.8000E-04  6.8000E-04  6.8000E-04  6.8000E-04  6.8000E-04  6.6000E-04
       6.6000E-04  6.6000E-04  6.4000E-04  6.4000E-04  6.2000E-04  6.2000E-04  6.0000E-04  6.0000E-04  6.2000E-04  6.2000E-04
       6.2000E-04  6.4000E-04  6.4000E-04  6.4000E-04  6.6000E-04  6.6000E-04  6.6000E-04  6.6000E-04  6.8000E-04  6.8000E-04
       6.8000E-04  6.8000E-04  6.8000E-04  6.8000E-04  6.8000E-04
   9   6.4000E-04  6.4000E-04  6.6000E-04  6.6000E-04  6.8000E-04  7.0000E-04  7.0000E-04  6.8000E-04  6.8000E-04  6.8000E-04
       6.6000E-04  6.6000E-04  6.6000E-04  6.4000E-04  6.4000E-04  6.2000E-04  6.2000E-04  6.2000E-04  6.2000E-04  6.2000E-04
       6.4000E-04  6.4000E-04  6.4000E-04  6.6000E-04  6.6000E-04  6.6000E-04  6.8000E-04  6.8000E-04  6.8000E-04  6.8000E-04
       6.8000E-04  6.8000E-04  6.8000E-04  6.8000E-04  6.8000E-04
  10   6.4000E-04  6.4000E-04  6.6000E-04  6.6000E-04  6.8000E-04  7.0000E-04  7.0000E-04  6.8000E-04  6.8000E-04  6.8000E-04
       6.8000E-04  6.6000E-04  6.6000E-04  6.6000E-04  6.4000E-04  6.4000E-04  6.4000E-04  6.4000E-04  6.4000E-04  6.4000E-04
       6.4000E-04  6.6000E-04  6.6000E-04  6.6000E-04  6.8000E-04  6.8000E-04  6.8000E-04  6.8000E-04  6.8000E-04  6.8000E-04
       6.8000E-04  7.0000E-04  7.0000E-04  7.0000E-04  7.0000E-04
  11   6.2000E-04  6.4000E-04  6.4000E-04  6.4000E-04  6.6000E-04  6.8000E-04  6.8000E-04  6.8000E-04  6.8000E-04  6.8000E-04
       6.8000E-04  6.6000E-04  6.6000E-04  6.6000E-04  6.6000E-04  6.4000E-04  6.4000E-04  6.4000E-04  6.6000E-04  6.6000E-04
       6.6000E-04  6.6000E-04  6.8000E-04  6.8000E-04  6.8000E-04  6.8000E-04  6.8000E-04  7.0000E-04  7.0000E-04  7.0000E-04
       7.0000E-04  7.0000E-04  7.0000E-04  7.0000E-04  7.0000E-04
  12   6.2000E-04  6.2000E-04  6.2000E-04  6.2000E-04  6.4000E-04  6.4000E-04  6.4000E-04  6.6000E-04  6.6000E-04  6.8000E-04
       6.8000E-04  6.8000E-04  6.6000E-04  6.6000E-04  6.6000E-04  6.6000E-04  6.6000E-04  6.6000E-04  6.6000E-04  6.6000E-04
       6.8000E-04  6.8000E-04  6.8000E-04  6.8000E-04  7.0000E-04  7.0000E-04  7.0000E-04  7.0000E-04  7.0000E-04  7.0000E-04
       7.0000E-04  7.0000E-04  7.0000E-04  7.0000E-04  7.0000E-04
  13   6.2000E-04  6.2000E-04  6.2000E-04  6.2000E-04  6.0000E-04  6.0000E-04  6.2000E-04  6.4000E-04  6.6000E-04  6.8000E-04
       6.8000E-04  6.8000E-04  6.6000E-04  6.6000E-04  6.6000E-04  6.6000E-04  6.6000E-04  6.8000E-04  6.8000E-04  6.8000E-04
       6.8000E-04  6.8000E-04  7.0000E-04  7.0000E-04  7.0000E-04  7.0000E-04  7.0000E-04  7.0000E-04  7.0000E-04  7.0000E-04
       7.0000E-04  7.0000E-04  7.0000E-04  7.0000E-04  7.0000E-04
  14   6.0000E-04  6.0000E-04  6.0000E-04  6.0000E-04  6.0000E-04  6.0000E-04  6.0000E-04  6.2000E-04  6.4000E-04  6.6000E-04
       6.6000E-04  6.6000E-04  6.6000E-04  6.6000E-04  6.8000E-04  6.8000E-04  6.8000E-04  6.8000E-04  6.8000E-04  7.0000E-04
       7.0000E-04  7.0000E-04  7.0000E-04  7.2000E-04  7.2000E-04  7.2000E-04  7.2000E-04  7.2000E-04  7.2000E-04  7.2000E-04
       7.2000E-04  7.2000E-04  7.2000E-04  7.2000E-04  7.2000E-04
  15   6.0000E-04  6.0000E-04  6.0000E-04  5.8000E-04  5.8000E-04  5.8000E-04  6.0000E-04  6.0000E-04  6.2000E-04  6.4000E-04
       6.4000E-04  6.6000E-04  6.6000E-04  6.6000E-04  6.8000E-04  6.8000E-04  6.8000E-04  6.8000E-04  7.0000E-04  7.0000E-04
       7.0000E-04  7.2000E-04  7.2000E-04  7.2000E-04  7.2000E-04  7.2000E-04  7.2000E-04  7.2000E-04  7.2000E-04  7.2000E-04
       7.2000E-04  7.2000E-04  7.2000E-04  7.2000E-04  7.2000E-04
  16   6.0000E-04  5.8000E-04  5.8000E-04  5.8000E-04  5.8000E-04  5.8000E-04  5.8000E-04  6.0000E-04  6.0000E-04  6.2000E-04
       6.4000E-04  6.4000E-04  6.6000E-04  6.6000E-04  6.8000E-04  6.8000E-04  7.0000E-04  7.0000E-04  7.0000E-04  7.2000E-04
       7.2000E-04  7.2000E-04  7.4000E-04  7.4000E-04  7.4000E-04  7.4000E-04  7.4000E-04  7.4000E-04  7.4000E-04  7.4000E-04
       7.2000E-04  7.2000E-04  7.2000E-04  7.2000E-04  7.2000E-04
  17   5.8000E-04  5.8000E-04  5.8000E-04  5.8000E-04  5.8000E-04  5.8000E-04  5.8000E-04  5.8000E-04  5.8000E-04  6.0000E-04
       6.2000E-04  6.4000E-04  6.6000E-04  6.6000E-04  6.8000E-04  6.8000E-04  7.0000E-04  7.0000E-04  7.2000E-04  7.2000E-04
       7.4000E-04  7.4000E-04  7.4000E-04  7.4000E-04  7.8000E-04  7.8000E-04  7.4000E-04  7.4000E-04  7.4000E-04  7.4000E-04
       7.4000E-04  7.4000E-04  7.2000E-04  7.2000E-04  7.2000E-04
  18   5.8000E-04  5.8000E-04  5.8000E-04  5.8000E-04  5.8000E-04  5.6000E-04  5.6000E-04  5.6000E-04  5.8000E-04  6.0000E-04
       6.2000E-04  6.4000E-04  6.4000E-04  6.6000E-04  6.8000E-04  6.8000E-04  7.0000E-04  7.2000E-04  7.2000E-04  7.4000E-04
       7.4000E-04  7.8000E-04  7.8000E-04  7.8000E-04  7.8000E-04  7.8000E-04  7.8000E-04  7.8000E-04  7.8000E-04  7.4000E-04
       7.4000E-04  7.4000E-04  7.4000E-04  7.4000E-04  7.4000E-04
  19   5.8000E-04  5.8000E-04  5.8000E-04  5.8000E-04  5.8000E-04  5.6000E-04  5.6000E-04  5.6000E-04  5.8000E-04  6.0000E-04
       6.2000E-04  6.4000E-04  6.4000E-04  6.6000E-04  6.8000E-04  7.0000E-04  7.0000E-04  7.2000E-04  7.4000E-04  7.4000E-04
       7.8000E-04  7.8000E-04  8.0000E-04  8.0000E-04  8.0000E-04  8.0000E-04  7.8000E-04  7.8000E-04  7.8000E-04  7.8000E-04
       7.4000E-04  7.4000E-04  7.4000E-04  7.4000E-04  7.4000E-04
  20   5.8000E-04  5.8000E-04  5.8000E-04  5.8000E-04  5.8000E-04  5.8000E-04  5.8000E-04  5.8000E-04  5.8000E-04  6.0000E-04
       6.2000E-04  6.4000E-04  6.4000E-04  6.6000E-04  6.8000E-04  7.0000E-04  7.2000E-04  7.2000E-04  7.4000E-04  7.8000E-04
       7.8000E-04  8.0000E-04  8.0000E-04  8.0000E-04  8.0000E-04  8.0000E-04  8.0000E-04  8.0000E-04  7.8000E-04  7.8000E-04
       7.8000E-04  7.4000E-04  7.4000E-04  7.4000E-04  7.4000E-04
  21   5.8000E-04  5.8000E-04  5.8000E-04  5.8000E-04  5.8000E-04  5.8000E-04  5.8000E-04  5.8000E-04  6.0000E-04  6.0000E-04
       6.2000E-04  6.4000E-04  6.6000E-04  6.6000E-04  6.8000E-04  7.0000E-04  7.2000E-04  7.4000E-04  7.4000E-04  7.8000E-04
       8.0000E-04  8.2000E-04  8.2000E-04  8.2000E-04  8.2000E-04  8.2000E-04  8.0000E-04  8.0000E-04  7.8000E-04  7.8000E-04
       7.8000E-04  7.8000E-04  7.4000E-04  7.4000E-04  7.4000E-04
  22   5.8000E-04  5.8000E-04  5.8000E-04  5.8000E-04  5.8000E-04  5.8000E-04  5.8000E-04  6.0000E-04  6.0000E-04  6.2000E-04
       6.2000E-04  6.4000E-04  6.6000E-04  6.8000E-04  6.8000E-04  7.0000E-04  7.2000E-04  7.4000E-04  7.8000E-04  8.0000E-04
       8.0000E-04  8.2000E-04  8.4000E-04  8.4000E-04  8.2000E-04  8.2000E-04  8.0000E-04  8.0000E-04  8.0000E-04  7.8000E-04
       7.8000E-04  7.8000E-04  7.8000E-04  7.4000E-04  7.4000E-04
  23   6.0000E-04  6.0000E-04  6.0000E-04  6.0000E-04  6.0000E-04  6.0000E-04  6.0000E-04  6.0000E-04  6.2000E-04  6.2000E-04
       6.4000E-04  6.4000E-04  6.6000E-04  6.8000E-04  7.0000E-04  7.0000E-04  7.2000E-04  7.4000E-04  7.8000E-04  8.0000E-04
       8.0000E-04  8.2000E-04  8.4000E-04  8.4000E-04  8.2000E-04  8.2000E-04  8.2000E-04  8.0000E-04  8.0000E-04  8.0000E-04
       7.8000E-04  7.8000E-04  7.8000E-04  7.8000E-04  7.8000E-04
  24   6.0000E-04  6.0000E-04  6.0000E-04  6.0000E-04  6.0000E-04  6.0000E-04  6.0000E-04  6.2000E-04  6.2000E-04  6.2000E-04
       6.4000E-04  6.6000E-04  6.6000E-04  6.8000E-04  7.0000E-04  7.2000E-04  7.2000E-04  7.4000E-04  7.8000E-04  8.0000E-04
       8.0000E-04  8.2000E-04  8.2000E-04  8.2000E-04  8.2000E-04  8.2000E-04  8.2000E-04  8.0000E-04  8.0000E-04  8.0000E-04
       7.8000E-04  7.8000E-04  7.8000E-04  7.8000E-04  7.8000E-04
  25   6.0000E-04  6.0000E-04  6.0000E-04  6.0000E-04  6.0000E-04  6.0000E-04  6.2000E-04  6.2000E-04  6.2000E-04  6.4000E-04
       6.4000E-04  6.6000E-04  6.8000E-04  6.8000E-04  7.0000E-04  7.2000E-04  7.2000E-04  7.4000E-04  7.8000E-04  8.0000E-04
       8.0000E-04  8.2000E-04  8.2000E-04  8.2000E-04  8.2000E-04  8.2000E-04  8.2000E-04  8.0000E-04  8.0000E-04  8.0000E-04
       8.0000E-04  7.8000E-04  7.8000E-04  7.8000E-04  7.8000E-04
  26   6.0000E-04  6.0000E-04  6.0000E-04  6.0000E-04  6.2000E-04  6.2000E-04  6.2000E-04  6.2000E-04  6.4000E-04  6.4000E-04
       6.6000E-04  6.6000E-04  6.8000E-04  6.8000E-04  7.0000E-04  7.2000E-04  7.2000E-04  7.4000E-04  7.8000E-04  7.8000E-04
       8.0000E-04  8.0000E-04  8.2000E-04  8.2000E-04  8.2000E-04  8.2000E-04  8.2000E-04  8.0000E-04  8.0000E-04  8.0000E-04
       8.0000E-04  7.8000E-04  7.8000E-04  7.8000E-04  7.8000E-04
  27   6.0000E-04  6.0000E-04  6.2000E-04  6.2000E-04  6.2000E-04  6.2000E-04  6.2000E-04  6.4000E-04  6.4000E-04  6.4000E-04
       6.6000E-04  6.6000E-04  6.8000E-04  7.0000E-04  7.0000E-04  7.2000E-04  7.2000E-04  7.4000E-04  7.8000E-04  7.8000E-04
       8.0000E-04  8.0000E-04  8.0000E-04  8.0000E-04  8.2000E-04  8.0000E-04  8.0000E-04  8.0000E-04  8.0000E-04  8.0000E-04
       8.0000E-04  8.0000E-04  7.8000E-04  7.8000E-04  7.8000E-04
  28   6.2000E-04  6.2000E-04  6.2000E-04  6.2000E-04  6.2000E-04  6.2000E-04  6.4000E-04  6.4000E-04  6.4000E-04  6.6000E-04
       6.6000E-04  6.8000E-04  6.8000E-04  7.0000E-04  7.0000E-04  7.2000E-04  7.2000E-04  7.4000E-04  7.8000E-04  7.8000E-04
       7.8000E-04  8.0000E-04  8.0000E-04  8.0000E-04  8.0000E-04  8.0000E-04  8.0000E-04  8.0000E-04  8.0000E-04  8.0000E-04
       8.0000E-04  8.0000E-04  7.8000E-04  7.8000E-04  7.8000E-04
  29   6.2000E-04  6.2000E-04  6.2000E-04  6.2000E-04  6.2000E-04  6.4000E-04  6.4000E-04  6.4000E-04  6.6000E-04  6.6000E-04
       6.6000E-04  6.8000E-04  6.8000E-04  7.0000E-04  7.0000E-04  7.2000E-04  7.2000E-04  7.4000E-04  7.4000E-04  7.8000E-04
       7.8000E-04  8.0000E-04  8.0000E-04  8.0000E-04  8.0000E-04  8.0000E-04  8.0000E-04  8.0000E-04  8.0000E-04  8.0000E-04
       8.0000E-04  8.0000E-04  7.8000E-04  7.8000E-04  7.8000E-04
  30   6.2000E-04  6.2000E-04  6.2000E-04  6.2000E-04  6.4000E-04  6.4000E-04  6.4000E-04  6.4000E-04  6.6000E-04  6.6000E-04
       6.8000E-04  6.8000E-04  6.8000E-04  7.0000E-04  7.0000E-04  7.2000E-04  7.2000E-04  7.4000E-04  7.4000E-04  7.8000E-04
       7.8000E-04  7.8000E-04  8.0000E-04  8.0000E-04  8.0000E-04  8.0000E-04  8.0000E-04  8.0000E-04  8.0000E-04  8.0000E-04
       8.0000E-04  8.0000E-04  7.8000E-04  7.8000E-04  7.8000E-04
  31   6.2000E-04  6.2000E-04  6.4000E-04  6.4000E-04  6.4000E-04  6.4000E-04  6.4000E-04  6.6000E-04  6.6000E-04  6.6000E-04
       6.8000E-04  6.8000E-04  7.0000E-04  7.0000E-04  7.0000E-04  7.2000E-04  7.2000E-04  7.4000E-04  7.4000E-04  7.8000E-04
       7.8000E-04  7.8000E-04  7.8000E-04  8.0000E-04  8.0000E-04  8.0000E-04  8.0000E-04  8.0000E-04  8.0000E-04  8.0000E-04
       8.0000E-04  8.0000E-04  7.8000E-04  7.8000E-04  7.8000E-04
  32   6.2000E-04  6.4000E-04  6.4000E-04  6.4000E-04  6.4000E-04  6.4000E-04  6.6000E-04  6.6000E-04  6.6000E-04  6.8000E-04
       6.8000E-04  6.8000E-04  7.0000E-04  7.0000E-04  7.2000E-04  7.2000E-04  7.2000E-04  7.4000E-04  7.4000E-04  7.4000E-04
       7.8000E-04  7.8000E-04  7.8000E-04  7.8000E-04  7.8000E-04  8.0000E-04  8.0000E-04  8.0000E-04  8.0000E-04  8.0000E-04
       8.0000E-04  7.8000E-04  7.8000E-04  7.8000E-04  7.8000E-04
  33   6.4000E-04  6.4000E-04  6.4000E-04  6.4000E-04  6.4000E-04  6.6000E-04  6.6000E-04  6.6000E-04  6.6000E-04  6.8000E-04
       6.8000E-04  6.8000E-04  7.0000E-04  7.0000E-04  7.2000E-04  7.2000E-04  7.2000E-04  7.4000E-04  7.4000E-04  7.4000E-04
       7.8000E-04  7.8000E-04  7.8000E-04  7.8000E-04  7.8000E-04  7.8000E-04  7.8000E-04  8.0000E-04  8.0000E-04  7.8000E-04
       7.8000E-04  7.8000E-04  7.8000E-04  7.8000E-04  7.8000E-04
  34   6.4000E-04  6.4000E-04  6.4000E-04  6.4000E-04  6.4000E-04  6.6000E-04  6.6000E-04  6.6000E-04  6.8000E-04  6.8000E-04
       6.8000E-04  6.8000E-04  7.0000E-04  7.0000E-04  7.2000E-04  7.2000E-04  7.2000E-04  7.4000E-04  7.4000E-04  7.4000E-04
       7.4000E-04  7.8000E-04  7.8000E-04  7.8000E-04  7.8000E-04  7.8000E-04  7.8000E-04  7.8000E-04  7.8000E-04  7.8000E-04
       7.8000E-04  7.8000E-04  7.8000E-04  7.8000E-04  7.8000E-04
  35   6.4000E-04  6.4000E-04  6.4000E-04  6.4000E-04  6.6000E-04  6.6000E-04  6.6000E-04  6.6000E-04  6.8000E-04  6.8000E-04
       6.8000E-04  7.0000E-04  7.0000E-04  7.0000E-04  7.2000E-04  7.2000E-04  7.2000E-04  7.4000E-04  7.4000E-04  7.4000E-04
       7.4000E-04  7.8000E-04  7.8000E-04  7.8000E-04  7.8000E-04  7.8000E-04  7.8000E-04  7.8000E-04  7.8000E-04  7.8000E-04
       7.8000E-04  7.8000E-04  7.8000E-04  7.8000E-04  7.8000E-04
  36   6.4000E-04  6.4000E-04  6.4000E-04  6.6000E-04  6.6000E-04  6.6000E-04  6.6000E-04  6.8000E-04  6.8000E-04  6.8000E-04
       6.8000E-04  7.0000E-04  7.0000E-04  7.0000E-04  7.2000E-04  7.2000E-04  7.2000E-04  7.2000E-04  7.4000E-04  7.4000E-04
       7.4000E-04  7.4000E-04  7.8000E-04  7.8000E-04  7.8000E-04  7.8000E-04  7.8000E-04  7.8000E-04  7.8000E-04  7.8000E-04
       7.8000E-04  7.8000E-04  7.8000E-04  7.8000E-04  7.8000E-04
  37   6.4000E-04  6.4000E-04  6.6000E-04  6.6000E-04  6.6000E-04  6.6000E-04  6.6000E-04  6.8000E-04  6.8000E-04  6.8000E-04
       6.8000E-04  7.0000E-04  7.0000E-04  7.0000E-04  7.2000E-04  7.2000E-04  7.2000E-04  7.2000E-04  7.4000E-04  7.4000E-04
       7.4000E-04  7.4000E-04  7.8000E-04  7.8000E-04  7.8000E-04  7.8000E-04  7.8000E-04  7.8000E-04  7.8000E-04  7.8000E-04
       7.8000E-04  7.8000E-04  7.8000E-04  7.8000E-04  7.8000E-04
  38   6.4000E-04  6.6000E-04  6.6000E-04  6.6000E-04  6.6000E-04  6.6000E-04  6.8000E-04  6.8000E-04  6.8000E-04  6.8000E-04
       7.0000E-04  7.0000E-04  7.0000E-04  7.0000E-04  7.2000E-04  7.2000E-04  7.2000E-04  7.2000E-04  7.4000E-04  7.4000E-04
       7.4000E-04  7.4000E-04  7.4000E-04  7.8000E-04  7.8000E-04  7.8000E-04  7.8000E-04  7.8000E-04  7.8000E-04  7.8000E-04
       7.8000E-04  7.8000E-04  7.8000E-04  7.8000E-04  7.8000E-04
  39   6.6000E-04  6.6000E-04  6.6000E-04  6.6000E-04  6.6000E-04  6.6000E-04  6.8000E-04  6.8000E-04  6.8000E-04  6.8000E-04
       7.0000E-04  7.0000E-04  7.0000E-04  7.0000E-04  7.2000E-04  7.2000E-04  7.2000E-04  7.2000E-04  7.4000E-04  7.4000E-04
       7.4000E-04  7.4000E-04  7.4000E-04  7.4000E-04  7.8000E-04  7.8000E-04  7.8000E-04  7.8000E-04  7.8000E-04  7.8000E-04
       7.8000E-04  7.8000E-04  7.8000E-04  7.8000E-04  7.8000E-04
  40   6.6000E-04  6.6000E-04  6.6000E-04  6.6000E-04  6.6000E-04  6.8000E-04  6.8000E-04  6.8000E-04  6.8000E-04  6.8000E-04
       7.0000E-04  7.0000E-04  7.0000E-04  7.0000E-04  7.2000E-04  7.2000E-04  7.2000E-04  7.2000E-04  7.2000E-04  7.4000E-04
       7.4000E-04  7.4000E-04  7.4000E-04  7.4000E-04  7.4000E-04  7.8000E-04  7.8000E-04  7.8000E-04  7.8000E-04  7.8000E-04
       7.8000E-04  7.8000E-04  7.8000E-04  7.8000E-04  7.8000E-04
  41   6.6000E-04  6.6000E-04  6.6000E-04  6.6000E-04  6.6000E-04  6.8000E-04  6.8000E-04  6.8000E-04  6.8000E-04  6.8000E-04
       7.0000E-04  7.0000E-04  7.0000E-04  7.0000E-04  7.2000E-04  7.2000E-04  7.2000E-04  7.2000E-04  7.2000E-04  7.4000E-04
       7.4000E-04  7.4000E-04  7.4000E-04  7.4000E-04  7.4000E-04  7.4000E-04  7.8000E-04  7.8000E-04  7.8000E-04  7.8000E-04
       7.8000E-04  7.8000E-04  7.8000E-04  7.8000E-04  7.8000E-04
  42   6.6000E-04  6.6000E-04  6.6000E-04  6.6000E-04  6.8000E-04  6.8000E-04  6.8000E-04  6.8000E-04  6.8000E-04  7.0000E-04
       7.0000E-04  7.0000E-04  7.0000E-04  7.0000E-04  7.2000E-04  7.2000E-04  7.2000E-04  7.2000E-04  7.2000E-04  7.4000E-04
       7.4000E-04  7.4000E-04  7.4000E-04  7.4000E-04  7.4000E-04  7.4000E-04  7.8000E-04  7.8000E-04  7.8000E-04  7.8000E-04
       7.8000E-04  7.8000E-04  7.8000E-04  7.8000E-04  7.8000E-04
  43   6.6000E-04  6.6000E-04  6.6000E-04  6.6000E-04  6.8000E-04  6.8000E-04  6.8000E-04  6.8000E-04  6.8000E-04  7.0000E-04
       7.0000E-04  7.0000E-04  7.0000E-04  7.0000E-04  7.2000E-04  7.2000E-04  7.2000E-04  7.2000E-04  7.2000E-04  7.4000E-04
       7.4000E-04  7.4000E-04  7.4000E-04  7.4000E-04  7.4000E-04  7.4000E-04  7.4000E-04  7.8000E-04  7.8000E-04  7.8000E-04
       7.8000E-04  7.8000E-04  7.8000E-04  7.8000E-04  7.8000E-04
  44   6.6000E-04  6.6000E-04  6.6000E-04  6.8000E-04  6.8000E-04  6.8000E-04  6.8000E-04  6.8000E-04  6.8000E-04  7.0000E-04
       7.0000E-04  7.0000E-04  7.0000E-04  7.0000E-04  7.2000E-04  7.2000E-04  7.2000E-04  7.2000E-04  7.2000E-04  7.2000E-04
       7.4000E-04  7.4000E-04  7.4000E-04  7.4000E-04  7.4000E-04  7.4000E-04  7.4000E-04  7.4000E-04  7.8000E-04  7.8000E-04
       7.8000E-04  7.8000E-04  7.8000E-04  7.8000E-04  7.8000E-04
  45   6.6000E-04  6.6000E-04  6.6000E-04  6.8000E-04  6.8000E-04  6.8000E-04  6.8000E-04  6.8000E-04  6.8000E-04  7.0000E-04
       7.0000E-04  7.0000E-04  7.0000E-04  7.0000E-04  7.2000E-04  7.2000E-04  7.2000E-04  7.2000E-04  7.2000E-04  7.2000E-04
       7.4000E-04  7.4000E-04  7.4000E-04  7.4000E-04  7.4000E-04  7.4000E-04  7.4000E-04  7.4000E-04  7.4000E-04  7.4000E-04
       7.8000E-04  7.8000E-04  7.8000E-04  7.8000E-04  7.8000E-04

         SPECIFIC STORAGE =  1.000000E-05 FOR LAYER   4

           SPECIFIC YIELD =  0.200000     FOR LAYER   4



                   WETDRY PARAMETER FOR LAYER   4
 READING ON UNIT   14 WITH FORMAT: (FREE)              

            1           2           3           4           5           6           7           8           9          10
           11          12          13          14          15          16          17          18          19          20
           21          22          23          24          25          26          27          28          29          30
           31          32          33          34          35
 ........................................................................................................................
   1   0.1220      0.1220      0.1220      0.1232      0.1254      0.1276      0.1299      0.1321      0.1343      0.1365    
       0.1388      0.1410      0.1432      0.1454      0.1477      0.1499      0.1500      0.1500      0.1500      0.1500    
       0.1500      0.1500      0.1519      0.1554      0.1588      0.1623      0.1658      0.1693      0.1728      0.1762    
       0.1797      0.1832      0.1867      0.1902      0.1936    
   2   0.1220      0.1220      0.1220      0.1224      0.1247      0.1269      0.1291      0.1313      0.1336      0.1358    
       0.1380      0.1402      0.1425      0.1447      0.1469      0.1491      0.1500      0.1500      0.1500      0.1500    
       0.1500      0.1515      0.1550      0.1585      0.1620      0.1654      0.1689      0.1724      0.1759      0.1794    
       0.1829      0.1863      0.1898      0.1933      0.1967    
   3   0.1220      0.1220      0.1220      0.1220      0.1239      0.1261      0.1283      0.1306      0.1328      0.1350    
       0.1372      0.1395      0.1417      0.1439      0.1461      0.1484      0.1500      0.1500      0.1500      0.1500    
       0.1512      0.1546      0.1581      0.1616      0.1651      0.1686      0.1721      0.1755      0.1790      0.1825    
       0.1860      0.1895      0.1929      0.1964      0.1998    
   4   0.1220      0.1220      0.1220      0.1220      0.1231      0.1253      0.1276      0.1298      0.1320      0.1342    
       0.1365      0.1387      0.1409      0.1431      0.1454      0.1476      0.1498      0.1500      0.1500      0.1508    
       0.1543      0.1578      0.1613      0.1647      0.1682      0.1717      0.1752      0.1787      0.1821      0.1856    
       0.1891      0.1926      0.1961      0.1996      0.2029    
   5   0.1220      0.1220      0.1220      0.1220      0.1224      0.1246      0.1268      0.1290      0.1313      0.1335    
       0.1357      0.1379      0.1402      0.1424      0.1446      0.1468      0.1491      0.1500      0.1505      0.1539    
       0.1574      0.1609      0.1644      0.1679      0.1713      0.1748      0.1783      0.1818      0.1853      0.1888    
       0.1922      0.1957      0.1992      0.2027      0.2061    
   6   0.1220      0.1220      0.1220      0.1220      0.1220      0.1238      0.1260      0.1283      0.1305      0.1327    
       0.1349      0.1372      0.1394      0.1416      0.1438      0.1461      0.1483      0.1501      0.1536      0.1571    
       0.1605      0.1640      0.1675      0.1710      0.1745      0.1780      0.1814      0.1849      0.1884      0.1919    
       0.1954      0.1988      0.2023      0.2058      0.2092    
   7   0.1220      0.1220      0.1220      0.1220      0.1220      0.1230      0.1253      0.1275      0.1297      0.1319    
       0.1342      0.1364      0.1386      0.1408      0.1431      0.1450      0.1466      0.1486      0.1567      0.1602    
       0.1637      0.1672      0.1706      0.1741      0.1776      0.1811      0.1846      0.1880      0.1915      0.1950    
       0.1985      0.2020      0.2055      0.2089      0.2123    
   8   0.1220      0.1220      0.1220      0.1220      0.1220      0.1223      0.1245      0.1267      0.1290      0.1312    
       0.1334      0.1356      0.1376      0.1392      0.1409      0.1426      0.1446      0.1465      0.1485      0.1633    
       0.1668      0.1703      0.1738      0.1772      0.1807      0.1842      0.1877      0.1912      0.1947      0.1981    
       0.2016      0.2051      0.2086      0.2121      0.2154    
   9   0.1220      0.1220      0.1220      0.1220      0.1220      0.1220      0.1237      0.1260      0.1282      0.1302    
       0.1319      0.1335      0.1352      0.1369      0.1386      0.1405      0.1425      0.1444      0.1464      0.1484    
       0.1699      0.1734      0.1769      0.1804      0.1839      0.1873      0.1908      0.1943      0.1978      0.2013    
       0.2047      0.2082      0.2117      0.2152      0.2186    
  10   0.1289      0.1276      0.1263      0.1250      0.1237      0.1224      0.1228      0.1245      0.1261      0.1278    
       0.1295      0.1312      0.1328      0.1345      0.1365      0.1384      0.1404      0.1424      0.1443      0.1463    
       0.1482      0.1702      0.1800      0.1835      0.1870      0.1905      0.1939      0.1974      0.2009      0.2044    
       0.2079      0.2114      0.2148      0.2183      0.2217    
  11   0.1397      0.1384      0.1371      0.1358      0.1345      0.1332      0.1287      0.1221      0.1238      0.1254    
       0.1271      0.1288      0.1305      0.1324      0.1344      0.1364      0.1383      0.1403      0.1422      0.1442    
       0.1462      0.1481      0.1696      0.1866      0.1901      0.1936      0.1971      0.2006      0.2040      0.2075    
       0.2110      0.2145      0.2180      0.2214      0.2248    
  12   0.1506      0.1493      0.1480      0.1467      0.1454      0.1441      0.1389      0.1317      0.1246      0.1231    
       0.1247      0.1265      0.1284      0.1304      0.1323      0.1343      0.1362      0.1382      0.1402      0.1421    
       0.1441      0.1460      0.1480      0.1689      0.1932      0.1967      0.2002      0.2037      0.2072      0.2106    
       0.2141      0.2176      0.2211      0.2246      0.2280    
  13   0.1520      0.1520      0.1520      0.1520      0.1520      0.1565      0.1582      0.1482      0.1382      0.1282    
       0.1224      0.1244      0.1263      0.1283      0.1302      0.1322      0.1342      0.1361      0.1381      0.1400    
       0.1420      0.1440      0.1459      0.1479      0.1682      0.1998      0.2033      0.2068      0.2103      0.2138    
       0.2173      0.2207      0.2242      0.2277      0.2311    
  14   0.1520      0.1520      0.1520      0.1549      0.1764      0.1979      0.2159      0.2059      0.1959      0.1859    
       0.1637      0.1311      0.1264      0.1278      0.1292      0.1306      0.1321      0.1340      0.1360      0.1380    
       0.1399      0.1419      0.1438      0.1458      0.1478      0.1676      0.2065      0.2099      0.2134      0.2169    
       0.2204      0.2239      0.2273      0.2308      0.2342    
  15   0.1520      0.1534      0.1748      0.1963      0.2178      0.2392      0.2607      0.2636      0.2536      0.2436    
       0.2129      0.1802      0.1476      0.1292      0.1306      0.1320      0.1334      0.1348      0.1362      0.1376    
       0.1390      0.1404      0.1418      0.1437      0.1457      0.1476      0.1669      0.2131      0.2165      0.2200    
       0.2235      0.2270      0.2305      0.2340      0.2373    
  16   0.1733      0.1947      0.2162      0.2377      0.2591      0.2806      0.3021      0.3214      0.3113      0.2947    
       0.2620      0.2294      0.1968      0.1641      0.1320      0.1334      0.1348      0.1362      0.1376      0.1390    
       0.1404      0.1418      0.1432      0.1446      0.1460      0.1473      0.1487      0.1662      0.2197      0.2232    
       0.2266      0.2301      0.2336      0.2371      0.2405    
  17   0.2146      0.2361      0.2576      0.2790      0.3005      0.3220      0.3435      0.3649      0.3691      0.3438    
       0.3112      0.2786      0.2459      0.2133      0.1807      0.1480      0.1362      0.1376      0.1390      0.1404    
       0.1418      0.1432      0.1446      0.1460      0.1474      0.1488      0.1543      0.1660      0.1778      0.2263    
       0.2298      0.2332      0.2367      0.2402      0.2436    
  18   0.2560      0.2775      0.2989      0.3204      0.3419      0.3634      0.3848      0.4063      0.4251      0.3930    
       0.3604      0.3277      0.2951      0.2624      0.2298      0.1972      0.1645      0.1391      0.1405      0.1418    
       0.1432      0.1446      0.1460      0.1474      0.1488      0.1509      0.1627      0.1745      0.1863      0.1980    
       0.2326      0.2364      0.2399      0.2433      0.2440    
  19   0.2974      0.3188      0.3403      0.3618      0.3833      0.4047      0.4260      0.4260      0.4203      0.4025    
       0.3847      0.3669      0.3442      0.3116      0.2790      0.2463      0.2137      0.1811      0.1484      0.1433    
       0.1447      0.1461      0.1475      0.1488      0.1502      0.1594      0.1712      0.1829      0.1947      0.2065    
       0.2183      0.2320      0.2430      0.2440      0.2440    
  20   0.3388      0.3602      0.3817      0.4032      0.4246      0.4260      0.4260      0.4260      0.4154      0.3976    
       0.3798      0.3620      0.3442      0.3264      0.3086      0.2909      0.2629      0.2302      0.1976      0.1649    
       0.1461      0.1475      0.1489      0.1503      0.1561      0.1678      0.1796      0.1914      0.2032      0.2149    
       0.2267      0.2360      0.2440      0.2440      0.2440    
  21   0.3801      0.4016      0.4231      0.4260      0.4260      0.4260      0.4260      0.4260      0.4105      0.3927    
       0.3749      0.3571      0.3393      0.3215      0.3038      0.2860      0.2682      0.2504      0.2326      0.2141    
       0.1815      0.1489      0.1503      0.1527      0.1645      0.1763      0.1881      0.1972      0.2064      0.2155    
       0.2247      0.2338      0.2429      0.2440      0.2440    
  22   0.4215      0.4260      0.4260      0.4260      0.4260      0.4260      0.4260      0.4234      0.4056      0.3878    
       0.3700      0.3522      0.3344      0.3167      0.2989      0.2811      0.2633      0.2455      0.2277      0.2099    
       0.1921      0.1744      0.1566      0.1584      0.1675      0.1767      0.1858      0.1950      0.2041      0.2133    
       0.2224      0.2316      0.2407      0.2440      0.2440    
  23   0.4260      0.4260      0.4260      0.4260      0.4260      0.4260      0.4260      0.4185      0.4007      0.3829    
       0.3651      0.3473      0.3296      0.3118      0.2940      0.2762      0.2584      0.2406      0.2228      0.2050    
       0.1873      0.1695      0.1520      0.1561      0.1653      0.1744      0.1836      0.1927      0.2019      0.2110    
       0.2202      0.2293      0.2385      0.2440      0.2440    
  24   0.4260      0.4260      0.4260      0.4260      0.4260      0.4260      0.4260      0.4136      0.3958      0.3780    
       0.3602      0.3425      0.3247      0.3069      0.2891      0.2713      0.2535      0.2357      0.2179      0.2002    
       0.1824      0.1646      0.1520      0.1539      0.1630      0.1722      0.1813      0.1905      0.1996      0.2088    
       0.2179      0.2271      0.2362      0.2440      0.2440    
  25   0.4260      0.4260      0.4260      0.4260      0.4260      0.4260      0.4260      0.4087      0.3909      0.3731    
       0.3554      0.3376      0.3198      0.3020      0.2842      0.2664      0.2486      0.2308      0.2131      0.1953    
       0.1775      0.1597      0.1520      0.1520      0.1608      0.1699      0.1791      0.1882      0.1974      0.2065    
       0.2157      0.2248      0.2340      0.2431      0.2440    
  26   0.4260      0.4260      0.4260      0.4260      0.4260      0.4260      0.4216      0.4038      0.3860      0.3683    
       0.3505      0.3327      0.3149      0.2971      0.2793      0.2615      0.2437      0.2260      0.2082      0.1904    
       0.1726      0.1548      0.1520      0.1520      0.1586      0.1677      0.1768      0.1860      0.1951      0.2043    
       0.2134      0.2226      0.2317      0.2409      0.2440    
  27   0.4260      0.4260      0.4260      0.4260      0.4260      0.4260      0.4167      0.3989      0.3812      0.3634    
       0.3456      0.3278      0.3100      0.2922      0.2744      0.2566      0.2389      0.2211      0.2033      0.1855    
       0.1677      0.1520      0.1520      0.1520      0.1563      0.1655      0.1746      0.1837      0.1929      0.2020    
       0.2112      0.2203      0.2295      0.2386      0.2440    
  28   0.4260      0.4260      0.4260      0.4260      0.4260      0.4260      0.4119      0.3941      0.3763      0.3585    
       0.3407      0.3229      0.3051      0.2873      0.2695      0.2518      0.2340      0.2162      0.1984      0.1806    
       0.1628      0.1520      0.1520      0.1520      0.1541      0.1632      0.1724      0.1815      0.1906      0.1998    
       0.2089      0.2181      0.2272      0.2364      0.2440    
  29   0.4260      0.4260      0.4260      0.4260      0.4260      0.4248      0.4070      0.3892      0.3714      0.3536    
       0.3358      0.3180      0.3002      0.2824      0.2647      0.2469      0.2291      0.2113      0.1935      0.1757    
       0.1579      0.1520      0.1520      0.1520      0.1520      0.1610      0.1701      0.1793      0.1884      0.1975    
       0.2067      0.2158      0.2250      0.2341      0.2430    
  30   0.4260      0.4260      0.4260      0.4260      0.4260      0.4199      0.4021      0.3843      0.3665      0.3487    
       0.3309      0.3131      0.2953      0.2776      0.2598      0.2420      0.2242      0.2064      0.1886      0.1708    
       0.1530      0.1520      0.1520      0.1520      0.1520      0.1587      0.1679      0.1770      0.1862      0.1953    
       0.2044      0.2136      0.2227      0.2319      0.2408    
  31   0.4260      0.4260      0.4260      0.4260      0.4260      0.4150      0.3972      0.3794      0.3616      0.3438    
       0.3260      0.3082      0.2905      0.2727      0.2549      0.2371      0.2193      0.2015      0.1837      0.1659    
       0.1520      0.1520      0.1520      0.1520      0.1520      0.1565      0.1656      0.1748      0.1839      0.1930    
       0.2022      0.2113      0.2205      0.2296      0.2385    
  32   0.4260      0.4260      0.4260      0.4260      0.4260      0.4101      0.3923      0.3745      0.3567      0.3389    
       0.3211      0.3034      0.2856      0.2678      0.2500      0.2322      0.2144      0.1966      0.1788      0.1611    
       0.1520      0.1520      0.1520      0.1520      0.1520      0.1542      0.1634      0.1725      0.1817      0.1908    
       0.1999      0.2091      0.2182      0.2274      0.2363    
  33   0.4260      0.4260      0.4260      0.4260      0.4230      0.4052      0.3874      0.3696      0.3518      0.3341    
       0.3163      0.2985      0.2807      0.2629      0.2451      0.2273      0.2095      0.1917      0.1740      0.1562    
       0.1520      0.1520      0.1520      0.1520      0.1520      0.1520      0.1611      0.1703      0.1794      0.1886    
       0.1977      0.2068      0.2160      0.2251      0.2340    
  34   0.4260      0.4260      0.4260      0.4260      0.4181      0.4003      0.3825      0.3647      0.3470      0.3292    
       0.3114      0.2936      0.2758      0.2580      0.2402      0.2224      0.2046      0.1869      0.1691      0.1520    
       0.1520      0.1520      0.1520      0.1520      0.1520      0.1520      0.1589      0.1680      0.1772      0.1863    
       0.1955      0.2046      0.2137      0.2229      0.2318    
  35   0.4260      0.4260      0.4260      0.4260      0.4132      0.3954      0.3776      0.3599      0.3421      0.3243    
       0.3065      0.2887      0.2709      0.2531      0.2353      0.2175      0.1998      0.1820      0.1642      0.1520    
       0.1520      0.1520      0.1520      0.1520      0.1520      0.1520      0.1566      0.1658      0.1749      0.1841    
       0.1932      0.2024      0.2115      0.2206      0.2295    
  36   0.4260      0.4260      0.4260      0.4260      0.4083      0.3905      0.3728      0.3550      0.3372      0.3194    
       0.3016      0.2838      0.2660      0.2482      0.2304      0.2127      0.1949      0.1771      0.1593      0.1520    
       0.1520      0.1520      0.1520      0.1520      0.1520      0.1520      0.1544      0.1635      0.1727      0.1818    
       0.1910      0.2001      0.2093      0.2184      0.2273    
  37   0.4260      0.4260      0.4260      0.4212      0.4034      0.3857      0.3679      0.3501      0.3323      0.3145    
       0.2967      0.2789      0.2611      0.2433      0.2256      0.2078      0.1900      0.1722      0.1544      0.1520    
       0.1520      0.1520      0.1520      0.1520      0.1520      0.1520      0.1521      0.1613      0.1704      0.1796    
       0.1887      0.1979      0.2070      0.2162      0.2250    
  38   0.4260      0.4260      0.4260      0.4163      0.3986      0.3808      0.3630      0.3452      0.3274      0.3096    
       0.2918      0.2740      0.2563      0.2385      0.2207      0.2029      0.1851      0.1673      0.1520      0.1520    
       0.1520      0.1520      0.1520      0.1520      0.1520      0.1520      0.1520      0.1590      0.1682      0.1773    
       0.1865      0.1956      0.2048      0.2139      0.2228    
  39   0.4260      0.4260      0.4260      0.4115      0.3937      0.3759      0.3581      0.3403      0.3225      0.3047    
       0.2869      0.2692      0.2514      0.2336      0.2158      0.1980      0.1802      0.1624      0.1520      0.1520    
       0.1520      0.1520      0.1520      0.1520      0.1520      0.1520      0.1520      0.1568      0.1659      0.1751    
       0.1842      0.1934      0.2025      0.2117      0.2206    
  40   0.4260      0.4260      0.4244      0.4066      0.3888      0.3710      0.3532      0.3354      0.3176      0.2998    
       0.2821      0.2643      0.2465      0.2287      0.2109      0.1931      0.1753      0.1575      0.1520      0.1520    
       0.1520      0.1520      0.1520      0.1520      0.1520      0.1520      0.1520      0.1545      0.1637      0.1728    
       0.1820      0.1911      0.2003      0.2094      0.2183    
  41   0.4260      0.4260      0.4195      0.4017      0.3839      0.3661      0.3483      0.3305      0.3127      0.2950    
       0.2772      0.2594      0.2416      0.2238      0.2060      0.1882      0.1704      0.1526      0.1520      0.1520    
       0.1520      0.1520      0.1520      0.1520      0.1520      0.1520      0.1520      0.1523      0.1614      0.1706    
       0.1797      0.1889      0.1980      0.2072      0.2161    
  42   0.4260      0.4260      0.4146      0.3968      0.3790      0.3612      0.3434      0.3256      0.3079      0.2901    
       0.2723      0.2545      0.2367      0.2189      0.2011      0.1833      0.1655      0.1520      0.1520      0.1520    
       0.1520      0.1520      0.1520      0.1520      0.1520      0.1520      0.1520      0.1520      0.1592      0.1683    
       0.1775      0.1866      0.1958      0.2049      0.2138    
  43   0.4260      0.4260      0.4097      0.3919      0.3741      0.3563      0.3385      0.3208      0.3030      0.2852    
       0.2674      0.2496      0.2318      0.2140      0.1962      0.1785      0.1607      0.1520      0.1520      0.1520    
       0.1520      0.1520      0.1520      0.1520      0.1520      0.1520      0.1520      0.1520      0.1570      0.1661    
       0.1752      0.1844      0.1935      0.2027      0.2116    
  44   0.4260      0.4226      0.4048      0.3870      0.3692      0.3514      0.3337      0.3159      0.2981      0.2803    
       0.2625      0.2447      0.2269      0.2091      0.1914      0.1736      0.1558      0.1520      0.1520      0.1520    
       0.1520      0.1520      0.1520      0.1520      0.1520      0.1520      0.1520      0.1520      0.1547      0.1639    
       0.1730      0.1821      0.1913      0.2004      0.2093    
  45   0.4260      0.4177      0.3999      0.3821      0.3643      0.3466      0.3288      0.3110      0.2932      0.2754    
       0.2576      0.2398      0.2220      0.2043      0.1865      0.1687      0.1520      0.1520      0.1520      0.1520    
       0.1520      0.1520      0.1520      0.1520      0.1520      0.1520      0.1520      0.1520      0.1525      0.1616    
       0.1708      0.1799      0.1890      0.1982      0.2071    



              HYD. COND. ALONG ROWS FOR LAYER   5
 READING ON UNIT   14 WITH FORMAT: (FREE)              

            1           2           3           4           5           6           7           8           9          10
           11          12          13          14          15          16          17          18          19          20
           21          22          23          24          25          26          27          28          29          30
           31          32          33          34          35
 ........................................................................................................................
   1   1.3900E-03  1.4100E-03  1.4400E-03  1.4700E-03  1.5000E-03  1.5300E-03  1.5700E-03  1.6100E-03  1.6600E-03  1.7000E-03
       1.7500E-03  1.8000E-03  1.8400E-03  1.8900E-03  1.9400E-03  1.9900E-03  2.0400E-03  2.0900E-03  2.1400E-03  2.2000E-03
       2.2600E-03  2.3200E-03  2.3800E-03  2.4300E-03  2.4900E-03  2.5400E-03  2.5900E-03  2.6400E-03  2.6800E-03  2.7200E-03
       2.7500E-03  2.7800E-03  2.8100E-03  2.8400E-03  2.8600E-03
   2   1.3600E-03  1.3800E-03  1.4100E-03  1.4400E-03  1.4700E-03  1.5000E-03  1.5400E-03  1.5900E-03  1.6300E-03  1.6800E-03
       1.7300E-03  1.7800E-03  1.8200E-03  1.8700E-03  1.9200E-03  1.9700E-03  2.0200E-03  2.0700E-03  2.1300E-03  2.1900E-03
       2.2500E-03  2.3100E-03  2.3700E-03  2.4300E-03  2.4900E-03  2.5500E-03  2.6000E-03  2.6500E-03  2.6900E-03  2.7300E-03
       2.7700E-03  2.8000E-03  2.8200E-03  2.8500E-03  2.8700E-03
   3   1.3300E-03  1.3500E-03  1.3800E-03  1.4000E-03  1.4300E-03  1.4700E-03  1.5100E-03  1.5600E-03  1.6100E-03  1.6600E-03
       1.7100E-03  1.7600E-03  1.8000E-03  1.8500E-03  1.9000E-03  1.9400E-03  1.9900E-03  2.0500E-03  2.1100E-03  2.1700E-03
       2.2400E-03  2.3000E-03  2.3700E-03  2.4300E-03  2.4900E-03  2.5500E-03  2.6100E-03  2.6600E-03  2.7000E-03  2.7400E-03
       2.7800E-03  2.8100E-03  2.8400E-03  2.8600E-03  2.8800E-03
   4   1.3000E-03  1.3200E-03  1.3400E-03  1.3700E-03  1.4000E-03  1.4300E-03  1.4800E-03  1.5300E-03  1.5800E-03  1.6300E-03
       1.6900E-03  1.7400E-03  1.7900E-03  1.8300E-03  1.8800E-03  1.9200E-03  1.9700E-03  2.0200E-03  2.0900E-03  2.1500E-03
       2.2200E-03  2.2900E-03  2.3600E-03  2.4300E-03  2.5000E-03  2.5600E-03  2.6100E-03  2.6700E-03  2.7100E-03  2.7600E-03
       2.7900E-03  2.8200E-03  2.8500E-03  2.8700E-03  2.8900E-03
   5   1.2800E-03  1.2900E-03  1.3100E-03  1.3300E-03  1.3600E-03  1.4000E-03  1.4400E-03  1.5000E-03  1.5600E-03  1.6200E-03
       1.6700E-03  1.7300E-03  1.7800E-03  1.8200E-03  1.8600E-03  1.9000E-03  1.9400E-03  2.0000E-03  2.0600E-03  2.1400E-03
       2.2100E-03  2.2900E-03  2.3600E-03  2.4300E-03  2.5000E-03  2.5600E-03  2.6200E-03  2.6800E-03  2.7300E-03  2.7700E-03
       2.8100E-03  2.8400E-03  2.8600E-03  2.8800E-03  2.9000E-03
   6   1.2500E-03  1.2700E-03  1.2800E-03  1.3000E-03  1.3200E-03  1.3600E-03  1.4100E-03  1.4700E-03  1.5400E-03  1.6000E-03
       1.6700E-03  1.7200E-03  1.7700E-03  1.8100E-03  1.8500E-03  1.8800E-03  1.9100E-03  1.9700E-03  2.0400E-03  2.1200E-03
       2.2000E-03  2.2800E-03  2.3500E-03  2.4300E-03  2.5000E-03  2.5700E-03  2.6300E-03  2.6900E-03  2.7400E-03  2.7800E-03
       2.8200E-03  2.8500E-03  2.8800E-03  2.9000E-03  2.9100E-03
   7   1.2300E-03  1.2400E-03  1.2500E-03  1.2600E-03  1.2800E-03  1.3100E-03  1.3700E-03  1.4400E-03  1.5200E-03  1.6000E-03
       1.6700E-03  1.7200E-03  1.7700E-03  1.8100E-03  1.8400E-03  1.8700E-03  1.9000E-03  1.9500E-03  2.0300E-03  2.1100E-03
       2.1900E-03  2.2700E-03  2.3500E-03  2.4300E-03  2.5100E-03  2.5800E-03  2.6500E-03  2.7000E-03  2.7600E-03  2.8000E-03
       2.8400E-03  2.8700E-03  2.8900E-03  2.9100E-03  2.9200E-03
   8   1.2200E-03  1.2300E-03  1.2300E-03  1.2300E-03  1.2400E-03  1.2600E-03  1.3200E-03  1.4200E-03  1.5200E-03  1.6100E-03
       1.6800E-03  1.7300E-03  1.7800E-03  1.8100E-03  1.8400E-03  1.8600E-03  1.9000E-03  1.9500E-03  2.0200E-03  2.0900E-03
       2.1700E-03  2.2500E-03  2.3400E-03  2.4300E-03  2.5100E-03  2.5900E-03  2.6600E-03  2.7200E-03  2.7700E-03  2.8200E-03
       2.8500E-03  2.8800E-03  2.9000E-03  2.9200E-03  2.9300E-03
   9   1.2100E-03  1.2200E-03  1.2300E-03  1.2200E-03  1.2000E-03  1.2000E-03  1.2800E-03  1.4100E-03  1.5300E-03  1.6300E-03
       1.7000E-03  1.7500E-03  1.7900E-03  1.8100E-03  1.8300E-03  1.8600E-03  1.8900E-03  1.9400E-03  2.0000E-03  2.0700E-03
       2.1500E-03  2.2400E-03  2.3300E-03  2.4200E-03  2.5100E-03  2.5900E-03  2.6700E-03  2.7300E-03  2.7900E-03  2.8300E-03
       2.8700E-03  2.8900E-03  2.9100E-03  2.9200E-03  2.9300E-03
  10   1.2100E-03  1.2300E-03  1.2500E-03  1.2500E-03  1.2200E-03  1.1500E-03  1.2700E-03  1.4400E-03  1.5800E-03  1.6800E-03
       1.7400E-03  1.7800E-03  1.8000E-03  1.8100E-03  1.8200E-03  1.8400E-03  1.8700E-03  1.9100E-03  1.9700E-03  2.0400E-03
       2.1200E-03  2.2100E-03  2.3100E-03  2.4100E-03  2.5100E-03  2.6000E-03  2.6800E-03  2.7500E-03  2.8000E-03  2.8500E-03
       2.8800E-03  2.9000E-03  2.9200E-03  2.9300E-03  2.9300E-03
  11   1.2100E-03  1.2500E-03  1.2800E-03  1.3200E-03  1.3300E-03  1.3200E-03  1.4100E-03  1.5400E-03  1.6500E-03  1.7400E-03
       1.8000E-03  1.8100E-03  1.8000E-03  1.7900E-03  1.7900E-03  1.8000E-03  1.8300E-03  1.8700E-03  1.9200E-03  1.9900E-03
       2.0800E-03  2.1800E-03  2.2800E-03  2.3900E-03  2.5000E-03  2.6000E-03  2.6900E-03  2.7600E-03  2.8200E-03  2.8600E-03
       2.8900E-03  2.9100E-03  2.9200E-03  2.9300E-03  2.9300E-03
  12   1.2100E-03  1.2600E-03  1.3300E-03  1.4000E-03  1.5000E-03  1.5800E-03  1.6000E-03  1.6500E-03  1.7300E-03  1.8200E-03
       1.8500E-03  1.8200E-03  1.7900E-03  1.7600E-03  1.7500E-03  1.7500E-03  1.7700E-03  1.8100E-03  1.8600E-03  1.9300E-03
       2.0200E-03  2.1200E-03  2.2400E-03  2.3600E-03  2.4900E-03  2.6000E-03  2.7000E-03  2.7800E-03  2.8400E-03  2.8700E-03
       2.9000E-03  2.9100E-03  2.9200E-03  2.9200E-03  2.9200E-03
  13   1.1900E-03  1.2600E-03  1.3400E-03  1.4500E-03  1.6000E-03  1.7900E-03  1.7000E-03  1.6900E-03  1.7500E-03  1.8600E-03
       1.8800E-03  1.7900E-03  1.7300E-03  1.6900E-03  1.6700E-03  1.6700E-03  1.6900E-03  1.7200E-03  1.7800E-03  1.8500E-03
       1.9400E-03  2.0500E-03  2.1800E-03  2.3200E-03  2.4600E-03  2.6000E-03  2.7100E-03  2.7900E-03  2.8500E-03  2.8800E-03
       2.9000E-03  2.9100E-03  2.9100E-03  2.9100E-03  2.9100E-03
  14   1.1600E-03  1.2200E-03  1.3000E-03  1.4100E-03  1.5300E-03  1.6200E-03  1.6100E-03  1.6100E-03  1.6500E-03  1.7200E-03
       1.7400E-03  1.6700E-03  1.6200E-03  1.5800E-03  1.5700E-03  1.5600E-03  1.5800E-03  1.6200E-03  1.6700E-03  1.7400E-03
       1.8400E-03  1.9600E-03  2.0900E-03  2.2500E-03  2.4200E-03  2.5900E-03  2.7200E-03  2.8100E-03  2.8500E-03  2.8700E-03
       2.8800E-03  2.8900E-03  2.8900E-03  2.8900E-03  2.8900E-03
  15   1.1000E-03  1.1600E-03  1.2200E-03  1.3000E-03  1.3700E-03  1.4100E-03  1.4200E-03  1.4200E-03  1.4500E-03  1.4900E-03
       1.5000E-03  1.4900E-03  1.4600E-03  1.4400E-03  1.4300E-03  1.4400E-03  1.4500E-03  1.4900E-03  1.5400E-03  1.6100E-03
       1.7100E-03  1.8300E-03  1.9800E-03  2.1500E-03  2.3500E-03  2.5500E-03  2.7300E-03  2.8100E-03  2.8300E-03  2.8400E-03
       2.8500E-03  2.8500E-03  2.8600E-03  2.8600E-03  2.8500E-03
  16   1.0300E-03  1.0700E-03  1.1100E-03  1.1600E-03  1.1900E-03  1.2000E-03  1.1900E-03  1.1700E-03  1.1900E-03  1.2200E-03
       1.2600E-03  1.2800E-03  1.2800E-03  1.2800E-03  1.2800E-03  1.2900E-03  1.3100E-03  1.3400E-03  1.3900E-03  1.4600E-03
       1.5500E-03  1.6700E-03  1.8300E-03  2.0100E-03  2.2200E-03  2.4600E-03  2.7100E-03  2.7500E-03  2.7600E-03  2.7700E-03
       2.7900E-03  2.8000E-03  2.8100E-03  2.8200E-03  2.8100E-03
  17   9.5000E-04  9.7000E-04  1.0000E-03  1.0100E-03  1.0100E-03  9.9000E-04  9.5000E-04  9.0000E-04  9.0000E-04  9.6000E-04
       1.0200E-03  1.0600E-03  1.0900E-03  1.1100E-03  1.1200E-03  1.1300E-03  1.1500E-03  1.1800E-03  1.2200E-03  1.2900E-03
       1.3700E-03  1.4900E-03  1.6300E-03  1.8200E-03  2.0300E-03  2.2600E-03  2.4600E-03  2.5700E-03  2.6200E-03  2.6700E-03
       2.7000E-03  2.7400E-03  2.7500E-03  2.7600E-03  2.7600E-03
  18   8.6000E-04  8.7000E-04  8.8000E-04  8.7000E-04  8.5000E-04  8.1000E-04  7.4000E-04  6.4000E-04  6.2000E-04  7.3000E-04
       8.1000E-04  8.7000E-04  9.1000E-04  9.4000E-04  9.6000E-04  9.7000E-04  9.9000E-04  1.0100E-03  1.0400E-03  1.0900E-03
       1.1600E-03  1.2600E-03  1.4000E-03  1.5800E-03  1.7900E-03  2.0000E-03  2.2000E-03  2.3400E-03  2.4500E-03  2.5300E-03
       2.6000E-03  2.6500E-03  2.6800E-03  2.7000E-03  2.7000E-03
  19   7.8000E-04  7.8000E-04  7.7000E-04  7.5000E-04  7.2000E-04  6.6000E-04  5.9000E-04  5.2000E-04  5.0000E-04  5.7000E-04
       6.5000E-04  7.1000E-04  7.5000E-04  7.8000E-04  8.0000E-04  8.2000E-04  8.3000E-04  8.4000E-04  8.6000E-04  8.9000E-04
       9.4000E-04  1.0200E-03  1.1500E-03  1.3200E-03  1.5200E-03  1.7400E-03  1.9400E-03  2.1100E-03  2.2500E-03  2.3700E-03
       2.4700E-03  2.5600E-03  2.6100E-03  2.6200E-03  2.6200E-03
  20   7.0000E-04  6.9000E-04  6.7000E-04  6.5000E-04  6.1000E-04  5.6000E-04  5.1000E-04  4.6000E-04  4.5000E-04  4.8000E-04
       5.3000E-04  5.8000E-04  6.2000E-04  6.4000E-04  6.6000E-04  6.7000E-04  6.8000E-04  6.8000E-04  6.8000E-04  6.9000E-04
       7.1000E-04  7.6000E-04  8.6000E-04  1.0400E-03  1.2600E-03  1.4900E-03  1.7000E-03  1.8900E-03  2.0600E-03  2.2000E-03
       2.3300E-03  2.4400E-03  2.5000E-03  2.5200E-03  2.5300E-03
  21   6.3000E-04  6.1000E-04  5.9000E-04  5.6000E-04  5.3000E-04  4.8000E-04  4.4000E-04  4.1000E-04  4.0000E-04  4.2000E-04
       4.5000E-04  4.8000E-04  5.0000E-04  5.2000E-04  5.4000E-04  5.4000E-04  5.4000E-04  5.3000E-04  5.2000E-04  5.0000E-04
       4.9000E-04  4.9000E-04  5.6000E-04  7.6000E-04  1.0100E-03  1.2500E-03  1.4800E-03  1.6900E-03  1.8700E-03  2.0300E-03
       2.1700E-03  2.2800E-03  2.3500E-03  2.3900E-03  2.4200E-03
  22   5.6000E-04  5.5000E-04  5.2000E-04  4.9000E-04  4.6000E-04  4.2000E-04  3.9000E-04  3.7000E-04  3.6000E-04  3.6000E-04
       3.8000E-04  3.9000E-04  4.1000E-04  4.2000E-04  4.3000E-04  4.3000E-04  4.2000E-04  4.1000E-04  3.9000E-04  3.6000E-04
       3.2000E-04  2.8000E-04  2.5000E-04  5.3000E-04  8.1000E-04  1.0600E-03  1.3000E-03  1.5100E-03  1.7000E-03  1.8600E-03
       2.0000E-03  2.1200E-03  2.2000E-03  2.2600E-03  2.3000E-03
  23   5.0000E-04  4.9000E-04  4.6000E-04  4.3000E-04  4.0000E-04  3.7000E-04  3.5000E-04  3.3000E-04  3.1000E-04  3.1000E-04
       3.2000E-04  3.3000E-04  3.4000E-04  3.4000E-04  3.4000E-04  3.4000E-04  3.3000E-04  3.1000E-04  2.9000E-04  2.6000E-04
       2.3000E-04  2.0000E-04  2.4000E-04  4.4000E-04  6.8000E-04  9.2000E-04  1.1500E-03  1.3500E-03  1.5400E-03  1.7000E-03
       1.8500E-03  1.9600E-03  2.0600E-03  2.1300E-03  2.1900E-03
  24   4.5000E-04  4.3000E-04  4.1000E-04  3.8000E-04  3.6000E-04  3.3000E-04  3.1000E-04  2.9000E-04  2.8000E-04  2.7000E-04
       2.7000E-04  2.7000E-04  2.7000E-04  2.8000E-04  2.7000E-04  2.7000E-04  2.6000E-04  2.4000E-04  2.2000E-04  2.1000E-04
       2.0000E-04  2.1000E-04  2.8000E-04  4.2000E-04  6.2000E-04  8.3000E-04  1.0400E-03  1.2300E-03  1.4100E-03  1.5700E-03
       1.7100E-03  1.8300E-03  1.9300E-03  2.0100E-03  2.0700E-03
  25   4.1000E-04  3.9000E-04  3.7000E-04  3.4000E-04  3.2000E-04  2.9000E-04  2.7000E-04  2.6000E-04  2.4000E-04  2.3000E-04
       2.3000E-04  2.3000E-04  2.3000E-04  2.2000E-04  2.2000E-04  2.1000E-04  2.1000E-04  2.0000E-04  1.9000E-04  1.8000E-04
       1.9000E-04  2.3000E-04  3.0000E-04  4.3000E-04  5.9000E-04  7.7000E-04  9.5000E-04  1.1300E-03  1.3000E-03  1.4500E-03
       1.5900E-03  1.7000E-03  1.8100E-03  1.8900E-03  1.9600E-03
  26   3.7000E-04  3.5000E-04  3.3000E-04  3.1000E-04  2.8000E-04  2.6000E-04  2.4000E-04  2.3000E-04  2.1000E-04  2.0000E-04
       2.0000E-04  1.9000E-04  1.9000E-04  1.9000E-04  1.8000E-04  1.8000E-04  1.7000E-04  1.7000E-04  1.7000E-04  1.8000E-04
       2.0000E-04  2.5000E-04  3.3000E-04  4.4000E-04  5.7000E-04  7.3000E-04  8.9000E-04  1.0500E-03  1.2100E-03  1.3500E-03
       1.4800E-03  1.6000E-03  1.7000E-03  1.7900E-03  1.8600E-03
  27   3.3000E-04  3.1000E-04  2.9000E-04  2.7000E-04  2.5000E-04  2.3000E-04  2.2000E-04  2.0000E-04  1.9000E-04  1.8000E-04
       1.7000E-04  1.7000E-04  1.6000E-04  1.6000E-04  1.6000E-04  1.5000E-04  1.5000E-04  1.6000E-04  1.7000E-04  1.8000E-04
       2.2000E-04  2.7000E-04  3.4000E-04  4.4000E-04  5.7000E-04  7.0000E-04  8.5000E-04  9.9000E-04  1.1300E-03  1.2600E-03
       1.3900E-03  1.5000E-03  1.6000E-03  1.6900E-03  1.7700E-03
  28   3.0000E-04  2.8000E-04  2.7000E-04  2.5000E-04  2.3000E-04  2.1000E-04  1.9000E-04  1.8000E-04  1.7000E-04  1.6000E-04
       1.5000E-04  1.5000E-04  1.4000E-04  1.4000E-04  1.4000E-04  1.4000E-04  1.4000E-04  1.5000E-04  1.7000E-04  1.9000E-04
       2.3000E-04  2.9000E-04  3.6000E-04  4.5000E-04  5.6000E-04  6.8000E-04  8.1000E-04  9.4000E-04  1.0700E-03  1.1900E-03
       1.3100E-03  1.4200E-03  1.5100E-03  1.6000E-03  1.6800E-03
  29   2.7000E-04  2.6000E-04  2.4000E-04  2.2000E-04  2.1000E-04  1.9000E-04  1.8000E-04  1.6000E-04  1.5000E-04  1.4000E-04
       1.4000E-04  1.3000E-04  1.3000E-04  1.3000E-04  1.3000E-04  1.3000E-04  1.4000E-04  1.6000E-04  1.8000E-04  2.1000E-04
       2.5000E-04  3.0000E-04  3.7000E-04  4.6000E-04  5.6000E-04  6.7000E-04  7.8000E-04  9.0000E-04  1.0200E-03  1.1300E-03
       1.2400E-03  1.3400E-03  1.4400E-03  1.5300E-03  1.6000E-03
  30   2.5000E-04  2.3000E-04  2.2000E-04  2.0000E-04  1.9000E-04  1.7000E-04  1.6000E-04  1.5000E-04  1.4000E-04  1.3000E-04
       1.2000E-04  1.2000E-04  1.2000E-04  1.2000E-04  1.2000E-04  1.3000E-04  1.4000E-04  1.6000E-04  1.9000E-04  2.2000E-04
       2.6000E-04  3.2000E-04  3.9000E-04  4.6000E-04  5.5000E-04  6.5000E-04  7.6000E-04  8.7000E-04  9.7000E-04  1.0800E-03
       1.1800E-03  1.2800E-03  1.3700E-03  1.4600E-03  1.5300E-03
  31   2.3000E-04  2.1000E-04  2.0000E-04  1.9000E-04  1.7000E-04  1.6000E-04  1.5000E-04  1.4000E-04  1.3000E-04  1.2000E-04
       1.2000E-04  1.2000E-04  1.2000E-04  1.2000E-04  1.3000E-04  1.4000E-04  1.5000E-04  1.7000E-04  2.0000E-04  2.3000E-04
       2.8000E-04  3.3000E-04  4.0000E-04  4.7000E-04  5.5000E-04  6.4000E-04  7.4000E-04  8.4000E-04  9.4000E-04  1.0400E-03
       1.1300E-03  1.2200E-03  1.3100E-03  1.3900E-03  1.4700E-03
  32   2.1000E-04  2.0000E-04  1.8000E-04  1.7000E-04  1.6000E-04  1.5000E-04  1.4000E-04  1.3000E-04  1.2000E-04  1.2000E-04
       1.1000E-04  1.1000E-04  1.1000E-04  1.2000E-04  1.3000E-04  1.4000E-04  1.6000E-04  1.8000E-04  2.1000E-04  2.5000E-04
       2.9000E-04  3.4000E-04  4.0000E-04  4.7000E-04  5.5000E-04  6.3000E-04  7.2000E-04  8.1000E-04  9.1000E-04  1.0000E-03
       1.0900E-03  1.1800E-03  1.2600E-03  1.3400E-03  1.4100E-03
  33   2.0000E-04  1.8000E-04  1.7000E-04  1.6000E-04  1.5000E-04  1.4000E-04  1.3000E-04  1.2000E-04  1.2000E-04  1.1000E-04
       1.1000E-04  1.1000E-04  1.2000E-04  1.2000E-04  1.3000E-04  1.5000E-04  1.7000E-04  1.9000E-04  2.2000E-04  2.6000E-04
       3.0000E-04  3.5000E-04  4.1000E-04  4.8000E-04  5.5000E-04  6.3000E-04  7.1000E-04  7.9000E-04  8.8000E-04  9.7000E-04
       1.0500E-03  1.1300E-03  1.2100E-03  1.2900E-03  1.3600E-03
  34   1.8000E-04  1.7000E-04  1.6000E-04  1.5000E-04  1.4000E-04  1.3000E-04  1.2000E-04  1.2000E-04  1.1000E-04  1.1000E-04
       1.1000E-04  1.2000E-04  1.2000E-04  1.3000E-04  1.4000E-04  1.6000E-04  1.8000E-04  2.0000E-04  2.3000E-04  2.7000E-04
       3.1000E-04  3.6000E-04  4.2000E-04  4.8000E-04  5.5000E-04  6.2000E-04  7.0000E-04  7.8000E-04  8.6000E-04  9.4000E-04
       1.0200E-03  1.0900E-03  1.1700E-03  1.2400E-03  1.3100E-03
  35   1.7000E-04  1.6000E-04  1.5000E-04  1.4000E-04  1.3000E-04  1.3000E-04  1.2000E-04  1.2000E-04  1.1000E-04  1.1000E-04
       1.2000E-04  1.2000E-04  1.3000E-04  1.4000E-04  1.5000E-04  1.7000E-04  1.9000E-04  2.1000E-04  2.4000E-04  2.8000E-04
       3.2000E-04  3.7000E-04  4.3000E-04  4.8000E-04  5.5000E-04  6.2000E-04  6.9000E-04  7.6000E-04  8.4000E-04  9.1000E-04
       9.9000E-04  1.0600E-03  1.1300E-03  1.2000E-03  1.2700E-03
  36   1.6000E-04  1.5000E-04  1.4000E-04  1.4000E-04  1.3000E-04  1.2000E-04  1.2000E-04  1.2000E-04  1.2000E-04  1.2000E-04
       1.2000E-04  1.2000E-04  1.3000E-04  1.4000E-04  1.6000E-04  1.8000E-04  2.0000E-04  2.2000E-04  2.6000E-04  2.9000E-04
       3.3000E-04  3.8000E-04  4.3000E-04  4.9000E-04  5.5000E-04  6.1000E-04  6.8000E-04  7.5000E-04  8.2000E-04  8.9000E-04
       9.6000E-04  1.0300E-03  1.1000E-03  1.1600E-03  1.2300E-03
  37   1.5000E-04  1.5000E-04  1.4000E-04  1.3000E-04  1.3000E-04  1.2000E-04  1.2000E-04  1.2000E-04  1.2000E-04  1.2000E-04
       1.2000E-04  1.3000E-04  1.4000E-04  1.5000E-04  1.7000E-04  1.9000E-04  2.1000E-04  2.4000E-04  2.7000E-04  3.0000E-04
       3.4000E-04  3.9000E-04  4.4000E-04  4.9000E-04  5.5000E-04  6.1000E-04  6.7000E-04  7.3000E-04  8.0000E-04  8.7000E-04
       9.3000E-04  1.0000E-03  1.0700E-03  1.1300E-03  1.1900E-03
  38   1.5000E-04  1.4000E-04  1.4000E-04  1.3000E-04  1.3000E-04  1.2000E-04  1.2000E-04  1.2000E-04  1.2000E-04  1.2000E-04
       1.3000E-04  1.4000E-04  1.5000E-04  1.6000E-04  1.8000E-04  2.0000E-04  2.2000E-04  2.5000E-04  2.8000E-04  3.1000E-04
       3.5000E-04  3.9000E-04  4.4000E-04  4.9000E-04  5.5000E-04  6.0000E-04  6.6000E-04  7.2000E-04  7.9000E-04  8.5000E-04
       9.1000E-04  9.8000E-04  1.0400E-03  1.1000E-03  1.1600E-03
  39   1.4000E-04  1.4000E-04  1.3000E-04  1.3000E-04  1.2000E-04  1.2000E-04  1.2000E-04  1.2000E-04  1.2000E-04  1.3000E-04
       1.4000E-04  1.4000E-04  1.6000E-04  1.7000E-04  1.9000E-04  2.1000E-04  2.3000E-04  2.6000E-04  2.9000E-04  3.2000E-04
       3.6000E-04  4.0000E-04  4.5000E-04  4.9000E-04  5.5000E-04  6.0000E-04  6.6000E-04  7.1000E-04  7.7000E-04  8.3000E-04
       8.9000E-04  9.5000E-04  1.0100E-03  1.0700E-03  1.1300E-03
  40   1.4000E-04  1.3000E-04  1.3000E-04  1.3000E-04  1.3000E-04  1.2000E-04  1.2000E-04  1.3000E-04  1.3000E-04  1.3000E-04
       1.4000E-04  1.5000E-04  1.6000E-04  1.8000E-04  2.0000E-04  2.2000E-04  2.4000E-04  2.7000E-04  3.0000E-04  3.3000E-04
       3.7000E-04  4.1000E-04  4.5000E-04  5.0000E-04  5.5000E-04  6.0000E-04  6.5000E-04  7.1000E-04  7.6000E-04  8.2000E-04
       8.8000E-04  9.3000E-04  9.9000E-04  1.0500E-03  1.1000E-03
  41   1.4000E-04  1.3000E-04  1.3000E-04  1.3000E-04  1.3000E-04  1.3000E-04  1.3000E-04  1.3000E-04  1.3000E-04  1.4000E-04
       1.5000E-04  1.6000E-04  1.7000E-04  1.9000E-04  2.0000E-04  2.3000E-04  2.5000E-04  2.8000E-04  3.1000E-04  3.4000E-04
       3.7000E-04  4.1000E-04  4.5000E-04  5.0000E-04  5.5000E-04  5.9000E-04  6.5000E-04  7.0000E-04  7.5000E-04  8.1000E-04
       8.6000E-04  9.1000E-04  9.7000E-04  1.0200E-03  1.0800E-03
  42   1.4000E-04  1.3000E-04  1.3000E-04  1.3000E-04  1.3000E-04  1.3000E-04  1.3000E-04  1.3000E-04  1.4000E-04  1.5000E-04
       1.6000E-04  1.7000E-04  1.8000E-04  2.0000E-04  2.1000E-04  2.3000E-04  2.6000E-04  2.8000E-04  3.1000E-04  3.5000E-04
       3.8000E-04  4.2000E-04  4.6000E-04  5.0000E-04  5.5000E-04  5.9000E-04  6.4000E-04  6.9000E-04  7.4000E-04  7.9000E-04
       8.5000E-04  9.0000E-04  9.5000E-04  1.0000E-03  1.0500E-03
  43   1.3000E-04  1.3000E-04  1.3000E-04  1.3000E-04  1.3000E-04  1.3000E-04  1.4000E-04  1.4000E-04  1.5000E-04  1.5000E-04
       1.6000E-04  1.8000E-04  1.9000E-04  2.0000E-04  2.2000E-04  2.4000E-04  2.7000E-04  2.9000E-04  3.2000E-04  3.5000E-04
       3.9000E-04  4.2000E-04  4.6000E-04  5.0000E-04  5.5000E-04  5.9000E-04  6.4000E-04  6.8000E-04  7.3000E-04  7.8000E-04
       8.3000E-04  8.8000E-04  9.3000E-04  9.8000E-04  1.0300E-03
  44   1.3000E-04  1.3000E-04  1.3000E-04  1.3000E-04  1.3000E-04  1.4000E-04  1.4000E-04  1.5000E-04  1.5000E-04  1.6000E-04
       1.7000E-04  1.8000E-04  2.0000E-04  2.1000E-04  2.3000E-04  2.5000E-04  2.8000E-04  3.0000E-04  3.3000E-04  3.6000E-04
       3.9000E-04  4.3000E-04  4.6000E-04  5.0000E-04  5.5000E-04  5.9000E-04  6.3000E-04  6.8000E-04  7.2000E-04  7.7000E-04
       8.2000E-04  8.7000E-04  9.2000E-04  9.6000E-04  1.0100E-03
  45   1.4000E-04  1.3000E-04  1.3000E-04  1.4000E-04  1.4000E-04  1.4000E-04  1.5000E-04  1.5000E-04  1.6000E-04  1.7000E-04
       1.8000E-04  1.9000E-04  2.1000E-04  2.2000E-04  2.4000E-04  2.6000E-04  2.8000E-04  3.1000E-04  3.4000E-04  3.7000E-04
       4.0000E-04  4.3000E-04  4.7000E-04  5.1000E-04  5.5000E-04  5.9000E-04  6.3000E-04  6.7000E-04  7.2000E-04  7.6000E-04
       8.1000E-04  8.5000E-04  9.0000E-04  9.5000E-04  9.9000E-04

   HORIZ. ANI. (COL./ROW) =   1.00000     FOR LAYER   5



                VERTICAL HYD. COND. FOR LAYER   5
 READING ON UNIT   14 WITH FORMAT: (FREE)              

            1           2           3           4           5           6           7           8           9          10
           11          12          13          14          15          16          17          18          19          20
           21          22          23          24          25          26          27          28          29          30
           31          32          33          34          35
 ........................................................................................................................
   1   2.7800E-04  2.8200E-04  2.8800E-04  2.9400E-04  3.0000E-04  3.0600E-04  3.1400E-04  3.2200E-04  3.3200E-04  3.4000E-04
       3.5000E-04  3.6000E-04  3.6800E-04  3.7800E-04  3.8800E-04  3.9800E-04  4.0800E-04  4.1800E-04  4.2800E-04  4.4000E-04
       4.5200E-04  4.6400E-04  4.7600E-04  4.8600E-04  4.9800E-04  5.0800E-04  5.1800E-04  5.2800E-04  5.3600E-04  5.4400E-04
       5.5000E-04  5.5600E-04  5.6200E-04  5.6800E-04  5.7200E-04
   2   2.7200E-04  2.7600E-04  2.8200E-04  2.8800E-04  2.9400E-04  3.0000E-04  3.0800E-04  3.1800E-04  3.2600E-04  3.3600E-04
       3.4600E-04  3.5600E-04  3.6400E-04  3.7400E-04  3.8400E-04  3.9400E-04  4.0400E-04  4.1400E-04  4.2600E-04  4.3800E-04
       4.5000E-04  4.6200E-04  4.7400E-04  4.8600E-04  4.9800E-04  5.1000E-04  5.2000E-04  5.3000E-04  5.3800E-04  5.4600E-04
       5.5400E-04  5.6000E-04  5.6400E-04  5.7000E-04  5.7400E-04
   3   2.6600E-04  2.7000E-04  2.7600E-04  2.8000E-04  2.8600E-04  2.9400E-04  3.0200E-04  3.1200E-04  3.2200E-04  3.3200E-04
       3.4200E-04  3.5200E-04  3.6000E-04  3.7000E-04  3.8000E-04  3.8800E-04  3.9800E-04  4.1000E-04  4.2200E-04  4.3400E-04
       4.4800E-04  4.6000E-04  4.7400E-04  4.8600E-04  4.9800E-04  5.1000E-04  5.2200E-04  5.3200E-04  5.4000E-04  5.4800E-04
       5.5600E-04  5.6200E-04  5.6800E-04  5.7200E-04  5.7600E-04
   4   2.6000E-04  2.6400E-04  2.6800E-04  2.7400E-04  2.8000E-04  2.8600E-04  2.9600E-04  3.0600E-04  3.1600E-04  3.2600E-04
       3.3800E-04  3.4800E-04  3.5800E-04  3.6600E-04  3.7600E-04  3.8400E-04  3.9400E-04  4.0400E-04  4.1800E-04  4.3000E-04
       4.4400E-04  4.5800E-04  4.7200E-04  4.8600E-04  5.0000E-04  5.1200E-04  5.2200E-04  5.3400E-04  5.4200E-04  5.5200E-04
       5.5800E-04  5.6400E-04  5.7000E-04  5.7400E-04  5.7800E-04
   5   2.5600E-04  2.5800E-04  2.6200E-04  2.6600E-04  2.7200E-04  2.8000E-04  2.8800E-04  3.0000E-04  3.1200E-04  3.2400E-04
       3.3400E-04  3.4600E-04  3.5600E-04  3.6400E-04  3.7200E-04  3.8000E-04  3.8800E-04  4.0000E-04  4.1200E-04  4.2800E-04
       4.4200E-04  4.5800E-04  4.7200E-04  4.8600E-04  5.0000E-04  5.1200E-04  5.2400E-04  5.3600E-04  5.4600E-04  5.5400E-04
       5.6200E-04  5.6800E-04  5.7200E-04  5.7600E-04  5.8000E-04
   6   2.5000E-04  2.5400E-04  2.5600E-04  2.6000E-04  2.6400E-04  2.7200E-04  2.8200E-04  2.9400E-04  3.0800E-04  3.2000E-04
       3.3400E-04  3.4400E-04  3.5400E-04  3.6200E-04  3.7000E-04  3.7600E-04  3.8200E-04  3.9400E-04  4.0800E-04  4.2400E-04
       4.4000E-04  4.5600E-04  4.7000E-04  4.8600E-04  5.0000E-04  5.1400E-04  5.2600E-04  5.3800E-04  5.4800E-04  5.5600E-04
       5.6400E-04  5.7000E-04  5.7600E-04  5.8000E-04  5.8200E-04
   7   2.4600E-04  2.4800E-04  2.5000E-04  2.5200E-04  2.5600E-04  2.6200E-04  2.7400E-04  2.8800E-04  3.0400E-04  3.2000E-04
       3.3400E-04  3.4400E-04  3.5400E-04  3.6200E-04  3.6800E-04  3.7400E-04  3.8000E-04  3.9000E-04  4.0600E-04  4.2200E-04
       4.3800E-04  4.5400E-04  4.7000E-04  4.8600E-04  5.0200E-04  5.1600E-04  5.3000E-04  5.4000E-04  5.5200E-04  5.6000E-04
       5.6800E-04  5.7400E-04  5.7800E-04  5.8200E-04  5.8400E-04
   8   2.4400E-04  2.4600E-04  2.4600E-04  2.4600E-04  2.4800E-04  2.5200E-04  2.6400E-04  2.8400E-04  3.0400E-04  3.2200E-04
       3.3600E-04  3.4600E-04  3.5600E-04  3.6200E-04  3.6800E-04  3.7200E-04  3.8000E-04  3.9000E-04  4.0400E-04  4.1800E-04
       4.3400E-04  4.5000E-04  4.6800E-04  4.8600E-04  5.0200E-04  5.1800E-04  5.3200E-04  5.4400E-04  5.5400E-04  5.6400E-04
       5.7000E-04  5.7600E-04  5.8000E-04  5.8400E-04  5.8600E-04
   9   2.4200E-04  2.4400E-04  2.4600E-04  2.4400E-04  2.4000E-04  2.4000E-04  2.5600E-04  2.8200E-04  3.0600E-04  3.2600E-04
       3.4000E-04  3.5000E-04  3.5800E-04  3.6200E-04  3.6600E-04  3.7200E-04  3.7800E-04  3.8800E-04  4.0000E-04  4.1400E-04
       4.3000E-04  4.4800E-04  4.6600E-04  4.8400E-04  5.0200E-04  5.1800E-04  5.3400E-04  5.4600E-04  5.5800E-04  5.6600E-04
       5.7400E-04  5.7800E-04  5.8200E-04  5.8400E-04  5.8600E-04
  10   2.4200E-04  2.4600E-04  2.5000E-04  2.5000E-04  2.4400E-04  2.3000E-04  2.5400E-04  2.8800E-04  3.1600E-04  3.3600E-04
       3.4800E-04  3.5600E-04  3.6000E-04  3.6200E-04  3.6400E-04  3.6800E-04  3.7400E-04  3.8200E-04  3.9400E-04  4.0800E-04
       4.2400E-04  4.4200E-04  4.6200E-04  4.8200E-04  5.0200E-04  5.2000E-04  5.3600E-04  5.5000E-04  5.6000E-04  5.7000E-04
       5.7600E-04  5.8000E-04  5.8400E-04  5.8600E-04  5.8600E-04
  11   2.4200E-04  2.5000E-04  2.5600E-04  2.6400E-04  2.6600E-04  2.6400E-04  2.8200E-04  3.0800E-04  3.3000E-04  3.4800E-04
       3.6000E-04  3.6200E-04  3.6000E-04  3.5800E-04  3.5800E-04  3.6000E-04  3.6600E-04  3.7400E-04  3.8400E-04  3.9800E-04
       4.1600E-04  4.3600E-04  4.5600E-04  4.7800E-04  5.0000E-04  5.2000E-04  5.3800E-04  5.5200E-04  5.6400E-04  5.7200E-04
       5.7800E-04  5.8200E-04  5.8400E-04  5.8600E-04  5.8600E-04
  12   2.4200E-04  2.5200E-04  2.6600E-04  2.8000E-04  3.0000E-04  3.1600E-04  3.2000E-04  3.3000E-04  3.4600E-04  3.6400E-04
       3.7000E-04  3.6400E-04  3.5800E-04  3.5200E-04  3.5000E-04  3.5000E-04  3.5400E-04  3.6200E-04  3.7200E-04  3.8600E-04
       4.0400E-04  4.2400E-04  4.4800E-04  4.7200E-04  4.9800E-04  5.2000E-04  5.4000E-04  5.5600E-04  5.6800E-04  5.7400E-04
       5.8000E-04  5.8200E-04  5.8400E-04  5.8400E-04  5.8400E-04
  13   2.3800E-04  2.5200E-04  2.6800E-04  2.9000E-04  3.2000E-04  3.5800E-04  3.4000E-04  3.3800E-04  3.5000E-04  3.7200E-04
       3.7600E-04  3.5800E-04  3.4600E-04  3.3800E-04  3.3400E-04  3.3400E-04  3.3800E-04  3.4400E-04  3.5600E-04  3.7000E-04
       3.8800E-04  4.1000E-04  4.3600E-04  4.6400E-04  4.9200E-04  5.2000E-04  5.4200E-04  5.5800E-04  5.7000E-04  5.7600E-04
       5.8000E-04  5.8200E-04  5.8200E-04  5.8200E-04  5.8200E-04
  14   2.3200E-04  2.4400E-04  2.6000E-04  2.8200E-04  3.0600E-04  3.2400E-04  3.2200E-04  3.2200E-04  3.3000E-04  3.4400E-04
       3.4800E-04  3.3400E-04  3.2400E-04  3.1600E-04  3.1400E-04  3.1200E-04  3.1600E-04  3.2400E-04  3.3400E-04  3.4800E-04
       3.6800E-04  3.9200E-04  4.1800E-04  4.5000E-04  4.8400E-04  5.1800E-04  5.4400E-04  5.6200E-04  5.7000E-04  5.7400E-04
       5.7600E-04  5.7800E-04  5.7800E-04  5.7800E-04  5.7800E-04
  15   2.2000E-04  2.3200E-04  2.4400E-04  2.6000E-04  2.7400E-04  2.8200E-04  2.8400E-04  2.8400E-04  2.9000E-04  2.9800E-04
       3.0000E-04  2.9800E-04  2.9200E-04  2.8800E-04  2.8600E-04  2.8800E-04  2.9000E-04  2.9800E-04  3.0800E-04  3.2200E-04
       3.4200E-04  3.6600E-04  3.9600E-04  4.3000E-04  4.7000E-04  5.1000E-04  5.4600E-04  5.6200E-04  5.6600E-04  5.6800E-04
       5.7000E-04  5.7000E-04  5.7200E-04  5.7200E-04  5.7000E-04
  16   2.0600E-04  2.1400E-04  2.2200E-04  2.3200E-04  2.3800E-04  2.4000E-04  2.3800E-04  2.3400E-04  2.3800E-04  2.4400E-04
       2.5200E-04  2.5600E-04  2.5600E-04  2.5600E-04  2.5600E-04  2.5800E-04  2.6200E-04  2.6800E-04  2.7800E-04  2.9200E-04
       3.1000E-04  3.3400E-04  3.6600E-04  4.0200E-04  4.4400E-04  4.9200E-04  5.4200E-04  5.5000E-04  5.5200E-04  5.5400E-04
       5.5800E-04  5.6000E-04  5.6200E-04  5.6400E-04  5.6200E-04
  17   1.9000E-04  1.9400E-04  2.0000E-04  2.0200E-04  2.0200E-04  1.9800E-04  1.9000E-04  1.8000E-04  1.8000E-04  1.9200E-04
       2.0400E-04  2.1200E-04  2.1800E-04  2.2200E-04  2.2400E-04  2.2600E-04  2.3000E-04  2.3600E-04  2.4400E-04  2.5800E-04
       2.7400E-04  2.9800E-04  3.2600E-04  3.6400E-04  4.0600E-04  4.5200E-04  4.9200E-04  5.1400E-04  5.2400E-04  5.3400E-04
       5.4000E-04  5.4800E-04  5.5000E-04  5.5200E-04  5.5200E-04
  18   1.7200E-04  1.7400E-04  1.7600E-04  1.7400E-04  1.7000E-04  1.6200E-04  1.4800E-04  1.2800E-04  1.2400E-04  1.4600E-04
       1.6200E-04  1.7400E-04  1.8200E-04  1.8800E-04  1.9200E-04  1.9400E-04  1.9800E-04  2.0200E-04  2.0800E-04  2.1800E-04
       2.3200E-04  2.5200E-04  2.8000E-04  3.1600E-04  3.5800E-04  4.0000E-04  4.4000E-04  4.6800E-04  4.9000E-04  5.0600E-04
       5.2000E-04  5.3000E-04  5.3600E-04  5.4000E-04  5.4000E-04
  19   1.5600E-04  1.5600E-04  1.5400E-04  1.5000E-04  1.4400E-04  1.3200E-04  1.1800E-04  1.0400E-04  1.0000E-04  1.1400E-04
       1.3000E-04  1.4200E-04  1.5000E-04  1.5600E-04  1.6000E-04  1.6400E-04  1.6600E-04  1.6800E-04  1.7200E-04  1.7800E-04
       1.8800E-04  2.0400E-04  2.3000E-04  2.6400E-04  3.0400E-04  3.4800E-04  3.8800E-04  4.2200E-04  4.5000E-04  4.7400E-04
       4.9400E-04  5.1200E-04  5.2200E-04  5.2400E-04  5.2400E-04
  20   1.4000E-04  1.3800E-04  1.3400E-04  1.3000E-04  1.2200E-04  1.1200E-04  1.0200E-04  9.2000E-05  9.0000E-05  9.6000E-05
       1.0600E-04  1.1600E-04  1.2400E-04  1.2800E-04  1.3200E-04  1.3400E-04  1.3600E-04  1.3600E-04  1.3600E-04  1.3800E-04
       1.4200E-04  1.5200E-04  1.7200E-04  2.0800E-04  2.5200E-04  2.9800E-04  3.4000E-04  3.7800E-04  4.1200E-04  4.4000E-04
       4.6600E-04  4.8800E-04  5.0000E-04  5.0400E-04  5.0600E-04
  21   1.2600E-04  1.2200E-04  1.1800E-04  1.1200E-04  1.0600E-04  9.6000E-05  8.8000E-05  8.2000E-05  8.0000E-05  8.4000E-05
       9.0000E-05  9.6000E-05  1.0000E-04  1.0400E-04  1.0800E-04  1.0800E-04  1.0800E-04  1.0600E-04  1.0400E-04  1.0000E-04
       9.8000E-05  9.8000E-05  1.1200E-04  1.5200E-04  2.0200E-04  2.5000E-04  2.9600E-04  3.3800E-04  3.7400E-04  4.0600E-04
       4.3400E-04  4.5600E-04  4.7000E-04  4.7800E-04  4.8400E-04
  22   1.1200E-04  1.1000E-04  1.0400E-04  9.8000E-05  9.2000E-05  8.4000E-05  7.8000E-05  7.4000E-05  7.2000E-05  7.2000E-05
       7.6000E-05  7.8000E-05  8.2000E-05  8.4000E-05  8.6000E-05  8.6000E-05  8.4000E-05  8.2000E-05  7.8000E-05  7.2000E-05
       6.4000E-05  5.6000E-05  5.0000E-05  1.0600E-04  1.6200E-04  2.1200E-04  2.6000E-04  3.0200E-04  3.4000E-04  3.7200E-04
       4.0000E-04  4.2400E-04  4.4000E-04  4.5200E-04  4.6000E-04
  23   1.0000E-04  9.8000E-05  9.2000E-05  8.6000E-05  8.0000E-05  7.4000E-05  7.0000E-05  6.6000E-05  6.2000E-05  6.2000E-05
       6.4000E-05  6.6000E-05  6.8000E-05  6.8000E-05  6.8000E-05  6.8000E-05  6.6000E-05  6.2000E-05  5.8000E-05  5.2000E-05
       4.6000E-05  4.0000E-05  4.8000E-05  8.8000E-05  1.3600E-04  1.8400E-04  2.3000E-04  2.7000E-04  3.0800E-04  3.4000E-04
       3.7000E-04  3.9200E-04  4.1200E-04  4.2600E-04  4.3800E-04
  24   9.0000E-05  8.6000E-05  8.2000E-05  7.6000E-05  7.2000E-05  6.6000E-05  6.2000E-05  5.8000E-05  5.6000E-05  5.4000E-05
       5.4000E-05  5.4000E-05  5.4000E-05  5.6000E-05  5.4000E-05  5.4000E-05  5.2000E-05  4.8000E-05  4.4000E-05  4.2000E-05
       4.0000E-05  4.2000E-05  5.6000E-05  8.4000E-05  1.2400E-04  1.6600E-04  2.0800E-04  2.4600E-04  2.8200E-04  3.1400E-04
       3.4200E-04  3.6600E-04  3.8600E-04  4.0200E-04  4.1400E-04
  25   8.2000E-05  7.8000E-05  7.4000E-05  6.8000E-05  6.4000E-05  5.8000E-05  5.4000E-05  5.2000E-05  4.8000E-05  4.6000E-05
       4.6000E-05  4.6000E-05  4.6000E-05  4.4000E-05  4.4000E-05  4.2000E-05  4.2000E-05  4.0000E-05  3.8000E-05  3.6000E-05
       3.8000E-05  4.6000E-05  6.0000E-05  8.6000E-05  1.1800E-04  1.5400E-04  1.9000E-04  2.2600E-04  2.6000E-04  2.9000E-04
       3.1800E-04  3.4000E-04  3.6200E-04  3.7800E-04  3.9200E-04
  26   7.4000E-05  7.0000E-05  6.6000E-05  6.2000E-05  5.6000E-05  5.2000E-05  4.8000E-05  4.6000E-05  4.2000E-05  4.0000E-05
       4.0000E-05  3.8000E-05  3.8000E-05  3.8000E-05  3.6000E-05  3.6000E-05  3.4000E-05  3.4000E-05  3.4000E-05  3.6000E-05
       4.0000E-05  5.0000E-05  6.6000E-05  8.8000E-05  1.1400E-04  1.4600E-04  1.7800E-04  2.1000E-04  2.4200E-04  2.7000E-04
       2.9600E-04  3.2000E-04  3.4000E-04  3.5800E-04  3.7200E-04
  27   6.6000E-05  6.2000E-05  5.8000E-05  5.4000E-05  5.0000E-05  4.6000E-05  4.4000E-05  4.0000E-05  3.8000E-05  3.6000E-05
       3.4000E-05  3.4000E-05  3.2000E-05  3.2000E-05  3.2000E-05  3.0000E-05  3.0000E-05  3.2000E-05  3.4000E-05  3.6000E-05
       4.4000E-05  5.4000E-05  6.8000E-05  8.8000E-05  1.1400E-04  1.4000E-04  1.7000E-04  1.9800E-04  2.2600E-04  2.5200E-04
       2.7800E-04  3.0000E-04  3.2000E-04  3.3800E-04  3.5400E-04
  28   6.0000E-05  5.6000E-05  5.4000E-05  5.0000E-05  4.6000E-05  4.2000E-05  3.8000E-05  3.6000E-05  3.4000E-05  3.2000E-05
       3.0000E-05  3.0000E-05  2.8000E-05  2.8000E-05  2.8000E-05  2.8000E-05  2.8000E-05  3.0000E-05  3.4000E-05  3.8000E-05
       4.6000E-05  5.8000E-05  7.2000E-05  9.0000E-05  1.1200E-04  1.3600E-04  1.6200E-04  1.8800E-04  2.1400E-04  2.3800E-04
       2.6200E-04  2.8400E-04  3.0200E-04  3.2000E-04  3.3600E-04
  29   5.4000E-05  5.2000E-05  4.8000E-05  4.4000E-05  4.2000E-05  3.8000E-05  3.6000E-05  3.2000E-05  3.0000E-05  2.8000E-05
       2.8000E-05  2.6000E-05  2.6000E-05  2.6000E-05  2.6000E-05  2.6000E-05  2.8000E-05  3.2000E-05  3.6000E-05  4.2000E-05
       5.0000E-05  6.0000E-05  7.4000E-05  9.2000E-05  1.1200E-04  1.3400E-04  1.5600E-04  1.8000E-04  2.0400E-04  2.2600E-04
       2.4800E-04  2.6800E-04  2.8800E-04  3.0600E-04  3.2000E-04
  30   5.0000E-05  4.6000E-05  4.4000E-05  4.0000E-05  3.8000E-05  3.4000E-05  3.2000E-05  3.0000E-05  2.8000E-05  2.6000E-05
       2.4000E-05  2.4000E-05  2.4000E-05  2.4000E-05  2.4000E-05  2.6000E-05  2.8000E-05  3.2000E-05  3.8000E-05  4.4000E-05
       5.2000E-05  6.4000E-05  7.8000E-05  9.2000E-05  1.1000E-04  1.3000E-04  1.5200E-04  1.7400E-04  1.9400E-04  2.1600E-04
       2.3600E-04  2.5600E-04  2.7400E-04  2.9200E-04  3.0600E-04
  31   4.6000E-05  4.2000E-05  4.0000E-05  3.8000E-05  3.4000E-05  3.2000E-05  3.0000E-05  2.8000E-05  2.6000E-05  2.4000E-05
       2.4000E-05  2.4000E-05  2.4000E-05  2.4000E-05  2.6000E-05  2.8000E-05  3.0000E-05  3.4000E-05  4.0000E-05  4.6000E-05
       5.6000E-05  6.6000E-05  8.0000E-05  9.4000E-05  1.1000E-04  1.2800E-04  1.4800E-04  1.6800E-04  1.8800E-04  2.0800E-04
       2.2600E-04  2.4400E-04  2.6200E-04  2.7800E-04  2.9400E-04
  32   4.2000E-05  4.0000E-05  3.6000E-05  3.4000E-05  3.2000E-05  3.0000E-05  2.8000E-05  2.6000E-05  2.4000E-05  2.4000E-05
       2.2000E-05  2.2000E-05  2.2000E-05  2.4000E-05  2.6000E-05  2.8000E-05  3.2000E-05  3.6000E-05  4.2000E-05  5.0000E-05
       5.8000E-05  6.8000E-05  8.0000E-05  9.4000E-05  1.1000E-04  1.2600E-04  1.4400E-04  1.6200E-04  1.8200E-04  2.0000E-04
       2.1800E-04  2.3600E-04  2.5200E-04  2.6800E-04  2.8200E-04
  33   4.0000E-05  3.6000E-05  3.4000E-05  3.2000E-05  3.0000E-05  2.8000E-05  2.6000E-05  2.4000E-05  2.4000E-05  2.2000E-05
       2.2000E-05  2.2000E-05  2.4000E-05  2.4000E-05  2.6000E-05  3.0000E-05  3.4000E-05  3.8000E-05  4.4000E-05  5.2000E-05
       6.0000E-05  7.0000E-05  8.2000E-05  9.6000E-05  1.1000E-04  1.2600E-04  1.4200E-04  1.5800E-04  1.7600E-04  1.9400E-04
       2.1000E-04  2.2600E-04  2.4200E-04  2.5800E-04  2.7200E-04
  34   3.6000E-05  3.4000E-05  3.2000E-05  3.0000E-05  2.8000E-05  2.6000E-05  2.4000E-05  2.4000E-05  2.2000E-05  2.2000E-05
       2.2000E-05  2.4000E-05  2.4000E-05  2.6000E-05  2.8000E-05  3.2000E-05  3.6000E-05  4.0000E-05  4.6000E-05  5.4000E-05
       6.2000E-05  7.2000E-05  8.4000E-05  9.6000E-05  1.1000E-04  1.2400E-04  1.4000E-04  1.5600E-04  1.7200E-04  1.8800E-04
       2.0400E-04  2.1800E-04  2.3400E-04  2.4800E-04  2.6200E-04
  35   3.4000E-05  3.2000E-05  3.0000E-05  2.8000E-05  2.6000E-05  2.6000E-05  2.4000E-05  2.4000E-05  2.2000E-05  2.2000E-05
       2.4000E-05  2.4000E-05  2.6000E-05  2.8000E-05  3.0000E-05  3.4000E-05  3.8000E-05  4.2000E-05  4.8000E-05  5.6000E-05
       6.4000E-05  7.4000E-05  8.6000E-05  9.6000E-05  1.1000E-04  1.2400E-04  1.3800E-04  1.5200E-04  1.6800E-04  1.8200E-04
       1.9800E-04  2.1200E-04  2.2600E-04  2.4000E-04  2.5400E-04
  36   3.2000E-05  3.0000E-05  2.8000E-05  2.8000E-05  2.6000E-05  2.4000E-05  2.4000E-05  2.4000E-05  2.4000E-05  2.4000E-05
       2.4000E-05  2.4000E-05  2.6000E-05  2.8000E-05  3.2000E-05  3.6000E-05  4.0000E-05  4.4000E-05  5.2000E-05  5.8000E-05
       6.6000E-05  7.6000E-05  8.6000E-05  9.8000E-05  1.1000E-04  1.2200E-04  1.3600E-04  1.5000E-04  1.6400E-04  1.7800E-04
       1.9200E-04  2.0600E-04  2.2000E-04  2.3200E-04  2.4600E-04
  37   3.0000E-05  3.0000E-05  2.8000E-05  2.6000E-05  2.6000E-05  2.4000E-05  2.4000E-05  2.4000E-05  2.4000E-05  2.4000E-05
       2.4000E-05  2.6000E-05  2.8000E-05  3.0000E-05  3.4000E-05  3.8000E-05  4.2000E-05  4.8000E-05  5.4000E-05  6.0000E-05
       6.8000E-05  7.8000E-05  8.8000E-05  9.8000E-05  1.1000E-04  1.2200E-04  1.3400E-04  1.4600E-04  1.6000E-04  1.7400E-04
       1.8600E-04  2.0000E-04  2.1400E-04  2.2600E-04  2.3800E-04
  38   3.0000E-05  2.8000E-05  2.8000E-05  2.6000E-05  2.6000E-05  2.4000E-05  2.4000E-05  2.4000E-05  2.4000E-05  2.4000E-05
       2.6000E-05  2.8000E-05  3.0000E-05  3.2000E-05  3.6000E-05  4.0000E-05  4.4000E-05  5.0000E-05  5.6000E-05  6.2000E-05
       7.0000E-05  7.8000E-05  8.8000E-05  9.8000E-05  1.1000E-04  1.2000E-04  1.3200E-04  1.4400E-04  1.5800E-04  1.7000E-04
       1.8200E-04  1.9600E-04  2.0800E-04  2.2000E-04  2.3200E-04
  39   2.8000E-05  2.8000E-05  2.6000E-05  2.6000E-05  2.4000E-05  2.4000E-05  2.4000E-05  2.4000E-05  2.4000E-05  2.6000E-05
       2.8000E-05  2.8000E-05  3.2000E-05  3.4000E-05  3.8000E-05  4.2000E-05  4.6000E-05  5.2000E-05  5.8000E-05  6.4000E-05
       7.2000E-05  8.0000E-05  9.0000E-05  9.8000E-05  1.1000E-04  1.2000E-04  1.3200E-04  1.4200E-04  1.5400E-04  1.6600E-04
       1.7800E-04  1.9000E-04  2.0200E-04  2.1400E-04  2.2600E-04
  40   2.8000E-05  2.6000E-05  2.6000E-05  2.6000E-05  2.6000E-05  2.4000E-05  2.4000E-05  2.6000E-05  2.6000E-05  2.6000E-05
       2.8000E-05  3.0000E-05  3.2000E-05  3.6000E-05  4.0000E-05  4.4000E-05  4.8000E-05  5.4000E-05  6.0000E-05  6.6000E-05
       7.4000E-05  8.2000E-05  9.0000E-05  1.0000E-04  1.1000E-04  1.2000E-04  1.3000E-04  1.4200E-04  1.5200E-04  1.6400E-04
       1.7600E-04  1.8600E-04  1.9800E-04  2.1000E-04  2.2000E-04
  41   2.8000E-05  2.6000E-05  2.6000E-05  2.6000E-05  2.6000E-05  2.6000E-05  2.6000E-05  2.6000E-05  2.6000E-05  2.8000E-05
       3.0000E-05  3.2000E-05  3.4000E-05  3.8000E-05  4.0000E-05  4.6000E-05  5.0000E-05  5.6000E-05  6.2000E-05  6.8000E-05
       7.4000E-05  8.2000E-05  9.0000E-05  1.0000E-04  1.1000E-04  1.1800E-04  1.3000E-04  1.4000E-04  1.5000E-04  1.6200E-04
       1.7200E-04  1.8200E-04  1.9400E-04  2.0400E-04  2.1600E-04
  42   2.8000E-05  2.6000E-05  2.6000E-05  2.6000E-05  2.6000E-05  2.6000E-05  2.6000E-05  2.6000E-05  2.8000E-05  3.0000E-05
       3.2000E-05  3.4000E-05  3.6000E-05  4.0000E-05  4.2000E-05  4.6000E-05  5.2000E-05  5.6000E-05  6.2000E-05  7.0000E-05
       7.6000E-05  8.4000E-05  9.2000E-05  1.0000E-04  1.1000E-04  1.1800E-04  1.2800E-04  1.3800E-04  1.4800E-04  1.5800E-04
       1.7000E-04  1.8000E-04  1.9000E-04  2.0000E-04  2.1000E-04
  43   2.6000E-05  2.6000E-05  2.6000E-05  2.6000E-05  2.6000E-05  2.6000E-05  2.8000E-05  2.8000E-05  3.0000E-05  3.0000E-05
       3.2000E-05  3.6000E-05  3.8000E-05  4.0000E-05  4.4000E-05  4.8000E-05  5.4000E-05  5.8000E-05  6.4000E-05  7.0000E-05
       7.8000E-05  8.4000E-05  9.2000E-05  1.0000E-04  1.1000E-04  1.1800E-04  1.2800E-04  1.3600E-04  1.4600E-04  1.5600E-04
       1.6600E-04  1.7600E-04  1.8600E-04  1.9600E-04  2.0600E-04
  44   2.6000E-05  2.6000E-05  2.6000E-05  2.6000E-05  2.6000E-05  2.8000E-05  2.8000E-05  3.0000E-05  3.0000E-05  3.2000E-05
       3.4000E-05  3.6000E-05  4.0000E-05  4.2000E-05  4.6000E-05  5.0000E-05  5.6000E-05  6.0000E-05  6.6000E-05  7.2000E-05
       7.8000E-05  8.6000E-05  9.2000E-05  1.0000E-04  1.1000E-04  1.1800E-04  1.2600E-04  1.3600E-04  1.4400E-04  1.5400E-04
       1.6400E-04  1.7400E-04  1.8400E-04  1.9200E-04  2.0200E-04
  45   2.8000E-05  2.6000E-05  2.6000E-05  2.8000E-05  2.8000E-05  2.8000E-05  3.0000E-05  3.0000E-05  3.2000E-05  3.4000E-05
       3.6000E-05  3.8000E-05  4.2000E-05  4.4000E-05  4.8000E-05  5.2000E-05  5.6000E-05  6.2000E-05  6.8000E-05  7.4000E-05
       8.0000E-05  8.6000E-05  9.4000E-05  1.0200E-04  1.1000E-04  1.1800E-04  1.2600E-04  1.3400E-04  1.4400E-04  1.5200E-04
       1.6200E-04  1.7000E-04  1.8000E-04  1.9000E-04  1.9800E-04

         SPECIFIC STORAGE =  1.000000E-05 FOR LAYER   5

           SPECIFIC YIELD =  0.200000     FOR LAYER   5



                   WETDRY PARAMETER FOR LAYER   5
 READING ON UNIT   14 WITH FORMAT: (FREE)              

            1           2           3           4           5           6           7           8           9          10
           11          12          13          14          15          16          17          18          19          20
           21          22          23          24          25          26          27          28          29          30
           31          32          33          34          35
 ........................................................................................................................
   1   6.1000E-02  6.1000E-02  6.1000E-02  6.0945E-02  6.0841E-02  6.0738E-02  6.0635E-02  6.0531E-02  6.0428E-02  6.0325E-02
       6.0221E-02  6.0118E-02  6.0015E-02  5.9911E-02  5.9808E-02  5.9705E-02  5.9700E-02  5.9700E-02  5.9700E-02  5.9700E-02
       5.9700E-02  5.9700E-02  6.0324E-02  6.1483E-02  6.2642E-02  6.3802E-02  6.4961E-02  6.6120E-02  6.7279E-02  6.8439E-02
       6.9598E-02  7.0757E-02  7.1917E-02  7.3076E-02  7.4203E-02
   2   6.1000E-02  6.1000E-02  6.1000E-02  6.0980E-02  6.0877E-02  6.0774E-02  6.0670E-02  6.0567E-02  6.0464E-02  6.0360E-02
       6.0257E-02  6.0154E-02  6.0050E-02  5.9947E-02  5.9844E-02  5.9740E-02  5.9700E-02  5.9700E-02  5.9700E-02  5.9700E-02
       5.9700E-02  6.0206E-02  6.1365E-02  6.2524E-02  6.3684E-02  6.4843E-02  6.6002E-02  6.7162E-02  6.8321E-02  6.9480E-02
       7.0639E-02  7.1799E-02  7.2958E-02  7.4117E-02  7.5244E-02
   3   6.1000E-02  6.1000E-02  6.1000E-02  6.1000E-02  6.0913E-02  6.0809E-02  6.0706E-02  6.0603E-02  6.0499E-02  6.0396E-02
       6.0293E-02  6.0189E-02  6.0086E-02  5.9983E-02  5.9879E-02  5.9776E-02  5.9700E-02  5.9700E-02  5.9700E-02  5.9700E-02
       6.0088E-02  6.1247E-02  6.2407E-02  6.3566E-02  6.4725E-02  6.5884E-02  6.7044E-02  6.8203E-02  6.9362E-02  7.0521E-02
       7.1681E-02  7.2840E-02  7.3999E-02  7.5159E-02  7.6286E-02
   4   6.1000E-02  6.1000E-02  6.1000E-02  6.1000E-02  6.0948E-02  6.0845E-02  6.0741E-02  6.0638E-02  6.0535E-02  6.0432E-02
       6.0328E-02  6.0225E-02  6.0122E-02  6.0018E-02  5.9915E-02  5.9812E-02  5.9708E-02  5.9700E-02  5.9700E-02  5.9970E-02
       6.1129E-02  6.2289E-02  6.3448E-02  6.4607E-02  6.5766E-02  6.6926E-02  6.8085E-02  6.9244E-02  7.0404E-02  7.1563E-02
       7.2722E-02  7.3881E-02  7.5041E-02  7.6200E-02  7.7327E-02
   5   6.1000E-02  6.1000E-02  6.1000E-02  6.1000E-02  6.0984E-02  6.0880E-02  6.0777E-02  6.0674E-02  6.0570E-02  6.0467E-02
       6.0364E-02  6.0260E-02  6.0157E-02  6.0054E-02  5.9951E-02  5.9847E-02  5.9744E-02  5.9700E-02  5.9852E-02  6.1011E-02
       6.2171E-02  6.3330E-02  6.4489E-02  6.5649E-02  6.6808E-02  6.7967E-02  6.9126E-02  7.0286E-02  7.1445E-02  7.2604E-02
       7.3763E-02  7.4923E-02  7.6082E-02  7.7241E-02  7.8368E-02
   6   6.1000E-02  6.1000E-02  6.1000E-02  6.1000E-02  6.1000E-02  6.0916E-02  6.0813E-02  6.0709E-02  6.0606E-02  6.0503E-02
       6.0399E-02  6.0296E-02  6.0193E-02  6.0089E-02  5.9986E-02  5.9883E-02  5.9779E-02  5.9734E-02  6.0893E-02  6.2053E-02
       6.3212E-02  6.4371E-02  6.5531E-02  6.6690E-02  6.7849E-02  6.9008E-02  7.0168E-02  7.1327E-02  7.2486E-02  7.3646E-02
       7.4805E-02  7.5964E-02  7.7123E-02  7.8283E-02  7.9410E-02
   7   6.1000E-02  6.1000E-02  6.1000E-02  6.1000E-02  6.1000E-02  6.0952E-02  6.0848E-02  6.0745E-02  6.0642E-02  6.0538E-02
       6.0435E-02  6.0332E-02  6.0228E-02  6.0125E-02  6.0022E-02  5.9934E-02  5.9903E-02  6.1476E-02  6.1935E-02  6.3094E-02
       6.4253E-02  6.5413E-02  6.6572E-02  6.7731E-02  6.8890E-02  7.0050E-02  7.1209E-02  7.2368E-02  7.3528E-02  7.4687E-02
       7.5846E-02  7.7005E-02  7.8165E-02  7.9324E-02  8.0451E-02
   8   6.1000E-02  6.1000E-02  6.1000E-02  6.1000E-02  6.1000E-02  6.0987E-02  6.0884E-02  6.0781E-02  6.0677E-02  6.0574E-02
       6.0471E-02  6.0367E-02  6.0277E-02  6.0199E-02  6.0122E-02  6.0120E-02  6.1693E-02  6.3267E-02  6.4841E-02  6.4135E-02
       6.5295E-02  6.6454E-02  6.7613E-02  6.8773E-02  6.9932E-02  7.1091E-02  7.2250E-02  7.3410E-02  7.4569E-02  7.5728E-02
       7.6887E-02  7.8047E-02  7.9206E-02  8.0365E-02  8.1492E-02
   9   6.1000E-02  6.1000E-02  6.1000E-02  6.1000E-02  6.1000E-02  6.1000E-02  6.0919E-02  6.0816E-02  6.0713E-02  6.0620E-02
       6.0542E-02  6.0465E-02  6.0387E-02  6.0309E-02  6.0337E-02  6.1911E-02  6.3484E-02  6.5058E-02  6.6632E-02  6.8205E-02
       6.6336E-02  6.7495E-02  6.8655E-02  6.9814E-02  7.0973E-02  7.2132E-02  7.3292E-02  7.4451E-02  7.5610E-02  7.6770E-02
       7.7929E-02  7.9088E-02  8.0247E-02  8.1407E-02  8.2534E-02
  10   5.0229E-02  5.2272E-02  5.4316E-02  5.6359E-02  5.8403E-02  6.0446E-02  6.0963E-02  6.0885E-02  6.0808E-02  6.0730E-02
       6.0652E-02  6.0575E-02  6.0497E-02  6.0554E-02  6.2128E-02  6.3701E-02  6.5275E-02  6.6849E-02  6.8423E-02  6.9996E-02
       7.1570E-02  6.9627E-02  6.9696E-02  7.0855E-02  7.2015E-02  7.3174E-02  7.4333E-02  7.5492E-02  7.6652E-02  7.7811E-02
       7.8970E-02  8.0129E-02  8.1289E-02  8.2448E-02  8.3575E-02
  11   3.3227E-02  3.5270E-02  3.7314E-02  3.9357E-02  4.1400E-02  4.3444E-02  5.0427E-02  6.0996E-02  6.0918E-02  6.0840E-02
       6.0762E-02  6.0685E-02  6.0771E-02  6.2345E-02  6.3919E-02  6.5492E-02  6.7066E-02  6.8640E-02  7.0213E-02  7.1787E-02
       7.3361E-02  7.4935E-02  7.3088E-02  7.1897E-02  7.3056E-02  7.4215E-02  7.5374E-02  7.6534E-02  7.7693E-02  7.8852E-02
       8.0012E-02  8.1171E-02  8.2330E-02  8.3489E-02  8.4616E-02
  12   1.6225E-02  1.8268E-02  2.0312E-02  2.2355E-02  2.4398E-02  2.6442E-02  3.4528E-02  4.5751E-02  5.6973E-02  6.0950E-02
       6.0873E-02  6.0988E-02  6.2562E-02  6.4136E-02  6.5709E-02  6.7283E-02  6.8857E-02  7.0431E-02  7.2004E-02  7.3578E-02
       7.5152E-02  7.6726E-02  7.8299E-02  7.6549E-02  7.4097E-02  7.5257E-02  7.6416E-02  7.7575E-02  7.8734E-02  7.9894E-02
       8.1053E-02  8.2212E-02  8.3371E-02  8.4531E-02  8.5658E-02
  13   1.4000E-02  1.4000E-02  1.4000E-02  1.4000E-02  1.4000E-02  1.5276E-02  2.3617E-02  3.3288E-02  4.2959E-02  5.2630E-02
       6.1205E-02  6.2779E-02  6.4353E-02  6.5927E-02  6.7500E-02  6.9074E-02  7.0648E-02  7.2221E-02  7.3795E-02  7.5369E-02
       7.6943E-02  7.8516E-02  8.0090E-02  8.1664E-02  8.0011E-02  7.6298E-02  7.7457E-02  7.8616E-02  7.9776E-02  8.0935E-02
       8.2094E-02  8.3254E-02  8.4413E-02  8.5572E-02  8.6699E-02
  14   1.4000E-02  1.4000E-02  1.4000E-02  1.4831E-02  2.0942E-02  2.7054E-02  3.3548E-02  4.3219E-02  5.2890E-02  6.2561E-02
       6.9293E-02  7.3487E-02  7.3858E-02  7.3397E-02  7.2936E-02  7.2475E-02  7.2439E-02  7.4012E-02  7.5586E-02  7.7160E-02
       7.8734E-02  8.0307E-02  8.1881E-02  8.3455E-02  8.5029E-02  8.3472E-02  7.8498E-02  7.9658E-02  8.0817E-02  8.1976E-02
       8.3136E-02  8.4295E-02  8.5454E-02  8.6613E-02  8.7740E-02
  15   1.4000E-02  1.4385E-02  2.0497E-02  2.6609E-02  3.2721E-02  3.8832E-02  4.4944E-02  5.3151E-02  6.2822E-02  7.2493E-02
       7.7152E-02  8.1346E-02  8.5541E-02  8.7786E-02  8.7325E-02  8.6864E-02  8.6403E-02  8.5942E-02  8.5481E-02  8.5020E-02
       8.4559E-02  8.4098E-02  8.3672E-02  8.5246E-02  8.6819E-02  8.8393E-02  8.6933E-02  8.0699E-02  8.1858E-02  8.3018E-02
       8.4177E-02  8.5336E-02  8.6495E-02  8.7655E-02  8.8782E-02
  16   2.0051E-02  2.6163E-02  3.2275E-02  3.8387E-02  4.4499E-02  5.0611E-02  5.6722E-02  6.3082E-02  7.2753E-02  8.0816E-02
       8.5011E-02  8.9205E-02  9.3400E-02  9.7594E-02  0.1017      0.1013      0.1008      0.1003      9.9870E-02  9.9409E-02
       9.8948E-02  9.8487E-02  9.8026E-02  9.7565E-02  9.7104E-02  9.6643E-02  9.6182E-02  9.0394E-02  8.2900E-02  8.4059E-02
       8.5218E-02  8.6378E-02  8.7537E-02  8.8696E-02  8.9823E-02
  17   3.1829E-02  3.7941E-02  4.4053E-02  5.0165E-02  5.6277E-02  6.2389E-02  6.8500E-02  7.4612E-02  8.2684E-02  8.8675E-02
       9.2870E-02  9.7064E-02  0.1013      0.1055      0.1096      0.1138      0.1152      0.1147      0.1143      0.1138    
       0.1133      0.1129      0.1124      0.1120      0.1115      0.1110      0.1079      0.1006      9.3269E-02  8.5100E-02
       8.6260E-02  8.7419E-02  8.8578E-02  8.9737E-02  9.0865E-02
  18   4.3607E-02  4.9719E-02  5.5831E-02  6.1943E-02  6.8055E-02  7.4167E-02  8.0279E-02  8.6390E-02  9.2284E-02  9.6535E-02
       0.1007      0.1049      0.1091      0.1133      0.1175      0.1217      0.1259      0.1291      0.1286      0.1282    
       0.1277      0.1273      0.1268      0.1263      0.1259      0.1249      0.1176      0.1103      0.1030      9.5733E-02
       8.7344E-02  8.8460E-02  8.9620E-02  9.0779E-02  9.1000E-02
  19   5.5385E-02  6.1497E-02  6.7609E-02  7.3721E-02  7.9833E-02  8.5945E-02  9.2000E-02  9.2000E-02  9.3907E-02  9.9815E-02
       0.1057      0.1116      0.1170      0.1212      0.1254      0.1296      0.1338      0.1379      0.1421      0.1426    
       0.1421      0.1417      0.1412      0.1407      0.1403      0.1347      0.1274      0.1201      0.1128      0.1055    
       9.8197E-02  9.0805E-02  9.0661E-02  9.1000E-02  9.1000E-02
  20   6.7163E-02  7.3275E-02  7.9387E-02  8.5499E-02  9.1611E-02  9.2000E-02  9.2000E-02  9.2000E-02  9.5530E-02  0.1014    
       0.1073      0.1133      0.1192      0.1251      0.1310      0.1369      0.1416      0.1458      0.1500      0.1542    
       0.1565      0.1560      0.1556      0.1551      0.1518      0.1445      0.1372      0.1299      0.1226      0.1153    
       0.1080      9.8954E-02  9.1000E-02  9.1000E-02  9.1000E-02
  21   7.8941E-02  8.5053E-02  9.1165E-02  9.2000E-02  9.2000E-02  9.2000E-02  9.2000E-02  9.2000E-02  9.7153E-02  0.1031    
       0.1090      0.1149      0.1208      0.1267      0.1326      0.1385      0.1444      0.1503      0.1562      0.1621    
       0.1663      0.1704      0.1700      0.1688      0.1615      0.1542      0.1469      0.1378      0.1286      0.1195    
       0.1103      0.1012      9.2054E-02  9.1000E-02  9.1000E-02
  22   9.0719E-02  9.2000E-02  9.2000E-02  9.2000E-02  9.2000E-02  9.2000E-02  9.2000E-02  9.2869E-02  9.8776E-02  0.1047    
       0.1106      0.1165      0.1224      0.1283      0.1342      0.1401      0.1460      0.1519      0.1579      0.1638    
       0.1697      0.1756      0.1815      0.1766      0.1675      0.1583      0.1492      0.1400      0.1309      0.1217    
       0.1126      0.1034      9.4300E-02  9.1000E-02  9.1000E-02
  23   9.2000E-02  9.2000E-02  9.2000E-02  9.2000E-02  9.2000E-02  9.2000E-02  9.2000E-02  9.4492E-02  0.1004      0.1063    
       0.1122      0.1181      0.1240      0.1299      0.1358      0.1418      0.1477      0.1536      0.1595      0.1654    
       0.1713      0.1772      0.1830      0.1789      0.1697      0.1606      0.1514      0.1423      0.1331      0.1240    
       0.1148      0.1057      9.6546E-02  9.1000E-02  9.1000E-02
  24   9.2000E-02  9.2000E-02  9.2000E-02  9.2000E-02  9.2000E-02  9.2000E-02  9.2000E-02  9.6115E-02  0.1020      0.1079    
       0.1138      0.1197      0.1257      0.1316      0.1375      0.1434      0.1493      0.1552      0.1611      0.1670    
       0.1729      0.1788      0.1830      0.1811      0.1720      0.1628      0.1537      0.1445      0.1354      0.1262    
       0.1171      0.1079      9.8792E-02  9.1000E-02  9.1000E-02
  25   9.2000E-02  9.2000E-02  9.2000E-02  9.2000E-02  9.2000E-02  9.2000E-02  9.2000E-02  9.7738E-02  0.1036      0.1096    
       0.1155      0.1214      0.1273      0.1332      0.1391      0.1450      0.1509      0.1568      0.1627      0.1686    
       0.1745      0.1804      0.1830      0.1830      0.1742      0.1651      0.1559      0.1468      0.1376      0.1285    
       0.1193      0.1102      0.1010      9.1893E-02  9.1000E-02
  26   9.2000E-02  9.2000E-02  9.2000E-02  9.2000E-02  9.2000E-02  9.2000E-02  9.3453E-02  9.9361E-02  0.1053      0.1112    
       0.1171      0.1230      0.1289      0.1348      0.1407      0.1466      0.1525      0.1584      0.1643      0.1703    
       0.1762      0.1821      0.1830      0.1830      0.1764      0.1673      0.1582      0.1490      0.1399      0.1307    
       0.1216      0.1124      0.1033      9.4139E-02  9.1000E-02
  27   9.2000E-02  9.2000E-02  9.2000E-02  9.2000E-02  9.2000E-02  9.2000E-02  9.5076E-02  0.1010      0.1069      0.1128    
       0.1187      0.1246      0.1305      0.1364      0.1423      0.1482      0.1542      0.1601      0.1660      0.1719    
       0.1778      0.1830      0.1830      0.1830      0.1787      0.1695      0.1604      0.1513      0.1421      0.1330    
       0.1238      0.1147      0.1055      9.6385E-02  9.1000E-02
  28   9.2000E-02  9.2000E-02  9.2000E-02  9.2000E-02  9.2000E-02  9.2000E-02  9.6699E-02  0.1026      0.1085      0.1144    
       0.1203      0.1262      0.1321      0.1381      0.1440      0.1499      0.1558      0.1617      0.1676      0.1735    
       0.1794      0.1830      0.1830      0.1830      0.1809      0.1718      0.1626      0.1535      0.1444      0.1352    
       0.1261      0.1169      0.1078      9.8631E-02  9.1000E-02
  29   9.2000E-02  9.2000E-02  9.2000E-02  9.2000E-02  9.2000E-02  9.2415E-02  9.8323E-02  0.1042      0.1101      0.1160    
       0.1220      0.1279      0.1338      0.1397      0.1456      0.1515      0.1574      0.1633      0.1692      0.1751    
       0.1810      0.1830      0.1830      0.1830      0.1830      0.1740      0.1649      0.1557      0.1466      0.1375    
       0.1283      0.1192      0.1100      0.1009      9.1986E-02
  30   9.2000E-02  9.2000E-02  9.2000E-02  9.2000E-02  9.2000E-02  9.4038E-02  9.9946E-02  0.1059      0.1118      0.1177    
       0.1236      0.1295      0.1354      0.1413      0.1472      0.1531      0.1590      0.1649      0.1708      0.1767    
       0.1827      0.1830      0.1830      0.1830      0.1830      0.1763      0.1671      0.1580      0.1488      0.1397    
       0.1306      0.1214      0.1123      0.1031      9.4232E-02
  31   9.2000E-02  9.2000E-02  9.2000E-02  9.2000E-02  9.2000E-02  9.5661E-02  0.1016      0.1075      0.1134      0.1193    
       0.1252      0.1311      0.1370      0.1429      0.1488      0.1547      0.1606      0.1666      0.1725      0.1784    
       0.1830      0.1830      0.1830      0.1830      0.1830      0.1785      0.1694      0.1602      0.1511      0.1420    
       0.1328      0.1237      0.1145      0.1054      9.6478E-02
  32   9.2000E-02  9.2000E-02  9.2000E-02  9.2000E-02  9.2000E-02  9.7284E-02  0.1032      0.1091      0.1150      0.1209    
       0.1268      0.1327      0.1386      0.1445      0.1505      0.1564      0.1623      0.1682      0.1741      0.1800    
       0.1830      0.1830      0.1830      0.1830      0.1830      0.1808      0.1716      0.1625      0.1533      0.1442    
       0.1351      0.1259      0.1168      0.1076      9.8724E-02
  33   9.2000E-02  9.2000E-02  9.2000E-02  9.2000E-02  9.3000E-02  9.8907E-02  0.1048      0.1107      0.1166      0.1225    
       0.1284      0.1344      0.1403      0.1462      0.1521      0.1580      0.1639      0.1698      0.1757      0.1816    
       0.1830      0.1830      0.1830      0.1830      0.1830      0.1830      0.1739      0.1647      0.1556      0.1464    
       0.1373      0.1282      0.1190      0.1099      0.1010    
  34   9.2000E-02  9.2000E-02  9.2000E-02  9.2000E-02  9.4623E-02  0.1005      0.1064      0.1123      0.1183      0.1242    
       0.1301      0.1360      0.1419      0.1478      0.1537      0.1596      0.1655      0.1714      0.1773      0.1830    
       0.1830      0.1830      0.1830      0.1830      0.1830      0.1830      0.1761      0.1670      0.1578      0.1487    
       0.1395      0.1304      0.1213      0.1121      0.1032    
  35   9.2000E-02  9.2000E-02  9.2000E-02  9.2000E-02  9.6246E-02  0.1022      0.1081      0.1140      0.1199      0.1258    
       0.1317      0.1376      0.1435      0.1494      0.1553      0.1612      0.1671      0.1730      0.1790      0.1830    
       0.1830      0.1830      0.1830      0.1830      0.1830      0.1830      0.1784      0.1692      0.1601      0.1509    
       0.1418      0.1326      0.1235      0.1144      0.1055    
  36   9.2000E-02  9.2000E-02  9.2000E-02  9.2000E-02  9.7869E-02  0.1038      0.1097      0.1156      0.1215      0.1274    
       0.1333      0.1392      0.1451      0.1510      0.1569      0.1629      0.1688      0.1747      0.1806      0.1830    
       0.1830      0.1830      0.1830      0.1830      0.1830      0.1830      0.1806      0.1715      0.1623      0.1532    
       0.1440      0.1349      0.1257      0.1166      0.1077    
  37   9.2000E-02  9.2000E-02  9.2000E-02  9.3584E-02  9.9492E-02  0.1054      0.1113      0.1172      0.1231      0.1290    
       0.1349      0.1408      0.1468      0.1527      0.1586      0.1645      0.1704      0.1763      0.1822      0.1830    
       0.1830      0.1830      0.1830      0.1830      0.1830      0.1830      0.1829      0.1737      0.1646      0.1554    
       0.1463      0.1371      0.1280      0.1188      0.1100    
  38   9.2000E-02  9.2000E-02  9.2000E-02  9.5207E-02  0.1011      0.1070      0.1129      0.1188      0.1247      0.1307    
       0.1366      0.1425      0.1484      0.1543      0.1602      0.1661      0.1720      0.1779      0.1830      0.1830    
       0.1830      0.1830      0.1830      0.1830      0.1830      0.1830      0.1830      0.1760      0.1668      0.1577    
       0.1485      0.1394      0.1302      0.1211      0.1122    
  39   9.2000E-02  9.2000E-02  9.2000E-02  9.6830E-02  0.1027      0.1086      0.1146      0.1205      0.1264      0.1323    
       0.1382      0.1441      0.1500      0.1559      0.1618      0.1677      0.1736      0.1795      0.1830      0.1830    
       0.1830      0.1830      0.1830      0.1830      0.1830      0.1830      0.1830      0.1782      0.1691      0.1599    
       0.1508      0.1416      0.1325      0.1233      0.1144    
  40   9.2000E-02  9.2000E-02  9.2546E-02  9.8453E-02  0.1044      0.1103      0.1162      0.1221      0.1280      0.1339    
       0.1398      0.1457      0.1516      0.1575      0.1634      0.1693      0.1753      0.1812      0.1830      0.1830    
       0.1830      0.1830      0.1830      0.1830      0.1830      0.1830      0.1830      0.1805      0.1713      0.1622    
       0.1530      0.1439      0.1347      0.1256      0.1167    
  41   9.2000E-02  9.2000E-02  9.4169E-02  0.1001      0.1060      0.1119      0.1178      0.1237      0.1296      0.1355    
       0.1414      0.1473      0.1532      0.1592      0.1651      0.1710      0.1769      0.1828      0.1830      0.1830    
       0.1830      0.1830      0.1830      0.1830      0.1830      0.1830      0.1830      0.1827      0.1736      0.1644    
       0.1553      0.1461      0.1370      0.1278      0.1189    
  42   9.2000E-02  9.2000E-02  9.5792E-02  0.1017      0.1076      0.1135      0.1194      0.1253      0.1312      0.1371    
       0.1431      0.1490      0.1549      0.1608      0.1667      0.1726      0.1785      0.1830      0.1830      0.1830    
       0.1830      0.1830      0.1830      0.1830      0.1830      0.1830      0.1830      0.1830      0.1758      0.1667    
       0.1575      0.1484      0.1392      0.1301      0.1212    
  43   9.2000E-02  9.2000E-02  9.7415E-02  0.1033      0.1092      0.1151      0.1210      0.1270      0.1329      0.1388    
       0.1447      0.1506      0.1565      0.1624      0.1683      0.1742      0.1801      0.1830      0.1830      0.1830    
       0.1830      0.1830      0.1830      0.1830      0.1830      0.1830      0.1830      0.1830      0.1780      0.1689    
       0.1598      0.1506      0.1415      0.1323      0.1234    
  44   9.2000E-02  9.3130E-02  9.9038E-02  0.1049      0.1109      0.1168      0.1227      0.1286      0.1345      0.1404    
       0.1463      0.1522      0.1581      0.1640      0.1699      0.1758      0.1817      0.1830      0.1830      0.1830    
       0.1830      0.1830      0.1830      0.1830      0.1830      0.1830      0.1830      0.1830      0.1803      0.1711    
       0.1620      0.1529      0.1437      0.1346      0.1257    
  45   9.2000E-02  9.4754E-02  0.1007      0.1066      0.1125      0.1184      0.1243      0.1302      0.1361      0.1420    
       0.1479      0.1538      0.1597      0.1656      0.1716      0.1775      0.1830      0.1830      0.1830      0.1830    
       0.1830      0.1830      0.1830      0.1830      0.1830      0.1830      0.1830      0.1830      0.1825      0.1734    
       0.1642      0.1551      0.1460      0.1368      0.1279    

 RCH -- RECHARGE PACKAGE, VERSION 7, 5/2/2005 INPUT READ FROM UNIT   24
 # RCH: Recharge package file created on 07.07.2016 by ModelMuse version 3.7.1.0.
 No named parameters
 OPTION 3 -- RECHARGE TO HIGHEST ACTIVE NODE IN EACH VERTICAL COLUMN
 CELL-BY-CELL FLOWS WILL BE SAVED ON UNIT    9


     0 Recharge parameters

 CHD -- TIME-VARIANT SPECIFIED-HEAD OPTION, VERSION 7, 5/2/2005
 INPUT READ FROM UNIT   17
 # CHD: Time-Variant Specified-Head package file created on 07.07.2016 by ModelMuse version 3.7.1.0.
 No named parameters
 MAXIMUM OF    166 TIME-VARIANT SPECIFIED-HEAD CELLS AT ONE TIME
 AUXILIARY CHD VARIABLE: IFACE           


     0 TIME-VARIANT SPECIFIED-HEAD PARAMETERS

 PCG -- CONJUGATE-GRADIENT SOLUTION PACKAGE, VERSION 7, 5/2/2005
 # PCG: Preconditioned Conjugate Gradient package file created on 07.07.2016 by ModelMuse version 3.7.1.0.
 MAXIMUM OF     20 CALLS OF SOLUTION ROUTINE
 MAXIMUM OF     30 INTERNAL ITERATIONS PER CALL TO SOLUTION ROUTINE
 MATRIX PRECONDITIONING TYPE :    1



                                    SOLUTION BY THE CONJUGATE-GRADIENT METHOD
                                   -------------------------------------------
                    MAXIMUM NUMBER OF CALLS TO PCG ROUTINE =       20
                        MAXIMUM ITERATIONS PER CALL TO PCG =       30
                               MATRIX PRECONDITIONING TYPE =        1
        RELAXATION FACTOR (ONLY USED WITH PRECOND. TYPE 1) =    0.10000E+01
 PARAMETER OF POLYNOMIAL PRECOND. = 2 (2) OR IS CALCULATED :        1
                         HEAD CHANGE CRITERION FOR CLOSURE =    0.10000E-05
                     RESIDUAL CHANGE CRITERION FOR CLOSURE =    0.10000E-05
            PCG HEAD AND RESIDUAL CHANGE PRINTOUT INTERVAL =        1
     PRINTING FROM SOLVER IS LIMITED(1) OR SUPPRESSED (>1) =        0
                            STEADY-STATE DAMPING PARAMETER =    0.10000E+01
                               TRANSIENT DAMPING PARAMETER =    0.10000E+01

 OBS2BAS7 -- HEAD OBSERVATIONS, VERSION 2.0, 2/28/2006
 INPUT READ FROM UNIT  41
 # HOB: Head Observation package file created on 07.07.2016 by ModelMuse version 3.7.1.0.

 NUMBER OF HEADS....................................:  660
   NUMBER OF MULTILAYER HEADS.......................:  660
   MAXIMUM NUMBER OF LAYERS FOR MULTILAYER HEADS....:    4
 HEAD OBSERVATIONS WILL BE SAVED ON UNIT............:   42
 SIMULATED EQUIVALENT HEAD AT DRY CELLS WILL BE:  -1.000000E+06

 OBSERVED HEAD DATA -- TIME OFFSETS ARE MULTIPLIED BY:   1.0000    

                    REFER.
       OBSERVATION  STRESS    TIME
  OBS#    NAME      PERIOD   OFFSET    OBSERVATION
     1 G10           -132   0.8640E+05   110.7    
     MULTIPLE LAYERS AND PROPORTIONS :    2, 0.25       3, 0.25       4, 0.25       5, 0.25
  TRANSIENT DATA AT THIS LOCATION, ITT =   1
     1 G10_1            1   0.8640E+05   110.7    
     2 G10_2            3    0.000       110.6    
     3 G10_3            4    0.000       110.5    
     4 G10_4            5    0.000       110.4    
     5 G10_5            6    0.000       109.9    
     6 G10_6            7    0.000       109.8    
     7 G10_7            8    0.000       109.7    
     8 G10_8            9    0.000       109.6    
     9 G10_9           10    0.000       109.5    
    10 G10_10          11    0.000       109.4    
    11 G10_11          12    0.000       109.4    
    12 G10_12          13    0.000       109.4    
    13 G10_13          14    0.000       109.4    
    14 G10_14          15    0.000       109.3    
    15 G10_15          16    0.000       109.3    
    16 G10_16          17    0.000       109.3    
    17 G10_17          18    0.000       109.4    
    18 G10_18          19    0.000       109.4    
    19 G10_19          20    0.000       109.4    
    20 G10_20          21    0.000       109.4    
    21 G10_21          22    0.000       109.4    
    22 G10_22          23    0.000       109.4    
    23 G10_23          24    0.000       109.3    
    24 G10_24          25    0.000       109.3    
    25 G10_25          26    0.000       109.4    
    26 G10_26          27    0.000       109.6    
    27 G10_27          28    0.000       109.7    
    28 G10_28          29    0.000       109.7    
    29 G10_29          30    0.000       109.6    
    30 G10_30          31    0.000       109.6    
    31 G10_31          32    0.000       109.5    
    32 G10_32          33    0.000       109.5    
    33 G10_33          34    0.000       109.4    
    34 G10_34          35    0.000       109.4    
    35 G10_35          36    0.000       109.6    
    36 G10_36          37    0.000       109.6    
    37 G10_37          38    0.000       109.6    
    38 G10_38          39    0.000       109.6    
    39 G10_39          40    0.000       109.5    
    40 G10_40          41    0.000       109.5    
    41 G10_41          42    0.000       109.5    
    42 G10_42          43    0.000       109.6    
    43 G10_43          44    0.000       109.5    
    44 G10_44          45    0.000       109.5    
    45 G10_45          46    0.000       109.6    
    46 G10_46          47    0.000       109.6    
    47 G10_47          48    0.000       109.6    
    48 G10_48          49    0.000       109.7    
    49 G10_49          50    0.000       109.6    
    50 G10_50          51    0.000       109.5    
    51 G10_51          52    0.000       109.5    
    52 G10_52          53    0.000       109.4    
    53 G10_53          54    0.000       109.4    
    54 G10_54          55    0.000       109.5    
    55 G10_55          56    0.000       109.4    
    56 G10_56          57    0.000       109.4    
    57 G10_57          58    0.000       109.4    
    58 G10_58          59    0.000       109.4    
    59 G10_59          60    0.000       109.5    
    60 G10_60          61    0.000       109.5    
    61 G10_61          62    0.000       109.5    
    62 G10_62          63    0.000       109.4    
    63 G10_63          64    0.000       109.4    
    64 G10_64          65    0.000       109.4    
    65 G10_65          66    0.000       109.4    
    66 G10_66          67    0.000       109.4    
    67 G10_67          68    0.000       109.5    
    68 G10_68          69    0.000       109.5    
    69 G10_69          70    0.000       109.5    
    70 G10_70          71    0.000       109.6    
    71 G10_71          72    0.000       109.7    
    72 G10_72          73    0.000       109.8    
    73 G10_73          74    0.000       109.8    
    74 G10_74          75    0.000       109.8    
    75 G10_75          76    0.000       109.8    
    76 G10_76          77    0.000       109.9    
    77 G10_77          78    0.000       109.8    
    78 G10_78          79    0.000       110.3    
    79 G10_79          80    0.000       110.3    
    80 G10_80          81    0.000       110.4    
    81 G10_81          82    0.000       110.4    
    82 G10_82          83    0.000       110.4    
    83 G10_83          84    0.000       110.4    
    84 G10_84          85    0.000       110.5    
    85 G10_85          86    0.000       110.4    
    86 G10_86          87    0.000       110.4    
    87 G10_87          88    0.000       110.3    
    88 G10_88          89    0.000       110.3    
    89 G10_89          90    0.000       110.2    
    90 G10_90          91    0.000       110.2    
    91 G10_91          92    0.000       110.3    
    92 G10_92          93    0.000       110.3    
    93 G10_93          94    0.000       110.0    
    94 G10_94          95    0.000       109.9    
    95 G10_95          96    0.000       109.9    
    96 G10_96          97    0.000       109.8    
    97 G10_97          98    0.000       109.9    
    98 G10_98          99    0.000       109.9    
    99 G10_99         100    0.000       110.0    
   100 G10_100        101    0.000       110.0    
   101 G10_101        102    0.000       110.2    
   102 G10_102        103    0.000       110.2    
   103 G10_103        104    0.000       110.3    
   104 G10_104        105    0.000       110.4    
   105 G10_105        106    0.000       110.7    
   106 G10_106        107    0.000       110.8    
   107 G10_107        108    0.000       110.7    
   108 G10_108        109    0.000       110.7    
   109 G10_109        110    0.000       110.5    
   110 G10_110        111    0.000       110.3    
   111 G10_111        112    0.000       110.3    
   112 G10_112        113    0.000       110.2    
   113 G10_113        114    0.000       110.1    
   114 G10_114        115    0.000       110.1    
   115 G10_115        116    0.000       110.0    
   116 G10_116        117    0.000       110.0    
   117 G10_117        118    0.000       110.0    
   118 G10_118        119    0.000       110.0    
   119 G10_119        120    0.000       110.0    
   120 G10_120        121    0.000       110.0    
   121 G10_121        122    0.000       110.0    
   122 G10_122        123    0.000       110.1    
   123 G10_123        124    0.000       110.1    
   124 G10_124        125    0.000       110.1    
   125 G10_125        126    0.000       110.0    
   126 G10_126        127    0.000       110.0    
   127 G10_127        128    0.000       110.0    
   128 G10_128        129    0.000       110.0    
   129 G10_129        130    0.000       109.8    
   130 G10_130        131    0.000       109.8    
   131 G10_131        132    0.000       109.9    
   132 G10_132        132   0.8640E+05   109.9    
 
   133 G11           -132   0.8640E+05   110.7    
     MULTIPLE LAYERS AND PROPORTIONS :    2, 0.25       3, 0.25       4, 0.25       5, 0.25
  TRANSIENT DATA AT THIS LOCATION, ITT =   1
   133 G11_1            1   0.8640E+05   110.7    
   134 G11_2            3    0.000       110.6    
   135 G11_3            4    0.000       110.5    
   136 G11_4            5    0.000       110.4    
   137 G11_5            6    0.000       109.8    
   138 G11_6            7    0.000       109.8    
   139 G11_7            8    0.000       109.6    
   140 G11_8            9    0.000       109.6    
   141 G11_9           10    0.000       109.4    
   142 G11_10          11    0.000       109.4    
   143 G11_11          12    0.000       109.4    
   144 G11_12          13    0.000       109.4    
   145 G11_13          14    0.000       109.4    
   146 G11_14          15    0.000       109.3    
   147 G11_15          16    0.000       109.3    
   148 G11_16          17    0.000       109.3    
   149 G11_17          18    0.000       109.3    
   150 G11_18          19    0.000       109.4    
   151 G11_19          20    0.000       109.4    
   152 G11_20          21    0.000       109.4    
   153 G11_21          22    0.000       109.4    
   154 G11_22          23    0.000       109.4    
   155 G11_23          24    0.000       109.3    
   156 G11_24          25    0.000       109.3    
   157 G11_25          26    0.000       109.4    
   158 G11_26          27    0.000       109.6    
   159 G11_27          28    0.000       109.7    
   160 G11_28          29    0.000       109.6    
   161 G11_29          30    0.000       109.6    
   162 G11_30          31    0.000       109.5    
   163 G11_31          32    0.000       109.5    
   164 G11_32          33    0.000       109.4    
   165 G11_33          34    0.000       109.3    
   166 G11_34          35    0.000       109.3    
   167 G11_35          36    0.000       109.5    
   168 G11_36          37    0.000       109.6    
   169 G11_37          38    0.000       109.6    
   170 G11_38          39    0.000       109.5    
   171 G11_39          40    0.000       109.5    
   172 G11_40          41    0.000       109.5    
   173 G11_41          42    0.000       109.5    
   174 G11_42          43    0.000       109.5    
   175 G11_43          44    0.000       109.5    
   176 G11_44          45    0.000       109.5    
   177 G11_45          46    0.000       109.6    
   178 G11_46          47    0.000       109.5    
   179 G11_47          48    0.000       109.6    
   180 G11_48          49    0.000       109.7    
   181 G11_49          50    0.000       109.6    
   182 G11_50          51    0.000       109.5    
   183 G11_51          52    0.000       109.5    
   184 G11_52          53    0.000       109.4    
   185 G11_53          54    0.000       109.4    
   186 G11_54          55    0.000       109.4    
   187 G11_55          56    0.000       109.4    
   188 G11_56          57    0.000       109.4    
   189 G11_57          58    0.000       109.4    
   190 G11_58          59    0.000       109.4    
   191 G11_59          60    0.000       109.4    
   192 G11_60          61    0.000       109.5    
   193 G11_61          62    0.000       109.4    
   194 G11_62          63    0.000       109.4    
   195 G11_63          64    0.000       109.4    
   196 G11_64          65    0.000       109.4    
   197 G11_65          66    0.000       109.4    
   198 G11_66          67    0.000       109.4    
   199 G11_67          68    0.000       109.5    
   200 G11_68          69    0.000       109.5    
   201 G11_69          70    0.000       109.5    
   202 G11_70          71    0.000       109.6    
   203 G11_71          72    0.000       109.7    
   204 G11_72          73    0.000       109.8    
   205 G11_73          74    0.000       109.8    
   206 G11_74          75    0.000       109.8    
   207 G11_75          76    0.000       109.8    
   208 G11_76          77    0.000       109.8    
   209 G11_77          78    0.000       109.8    
   210 G11_78          79    0.000       110.3    
   211 G11_79          80    0.000       110.3    
   212 G11_80          81    0.000       110.5    
   213 G11_81          82    0.000       110.4    
   214 G11_82          83    0.000       110.4    
   215 G11_83          84    0.000       110.4    
   216 G11_84          85    0.000       110.5    
   217 G11_85          86    0.000       110.4    
   218 G11_86          87    0.000       110.4    
   219 G11_87          88    0.000       110.2    
   220 G11_88          89    0.000       110.3    
   221 G11_89          90    0.000       110.2    
   222 G11_90          91    0.000       110.2    
   223 G11_91          92    0.000       110.2    
   224 G11_92          93    0.000       110.2    
   225 G11_93          94    0.000       110.0    
   226 G11_94          95    0.000       109.9    
   227 G11_95          96    0.000       109.9    
   228 G11_96          97    0.000       109.8    
   229 G11_97          98    0.000       109.9    
   230 G11_98          99    0.000       109.9    
   231 G11_99         100    0.000       109.9    
   232 G11_100        101    0.000       110.0    
   233 G11_101        102    0.000       110.2    
   234 G11_102        103    0.000       110.2    
   235 G11_103        104    0.000       110.3    
   236 G11_104        105    0.000       110.4    
   237 G11_105        106    0.000       110.8    
   238 G11_106        107    0.000       110.7    
   239 G11_107        108    0.000       110.7    
   240 G11_108        109    0.000       110.6    
   241 G11_109        110    0.000       110.5    
   242 G11_110        111    0.000       110.3    
   243 G11_111        112    0.000       110.2    
   244 G11_112        113    0.000       110.1    
   245 G11_113        114    0.000       110.1    
   246 G11_114        115    0.000       110.0    
   247 G11_115        116    0.000       110.0    
   248 G11_116        117    0.000       110.0    
   249 G11_117        118    0.000       107.0    
   250 G11_118        119    0.000       110.0    
   251 G11_119        120    0.000       110.0    
   252 G11_120        121    0.000       109.9    
   253 G11_121        122    0.000       110.0    
   254 G11_122        123    0.000       110.1    
   255 G11_123        124    0.000       110.1    
   256 G11_124        125    0.000       110.0    
   257 G11_125        126    0.000       110.0    
   258 G11_126        127    0.000       110.0    
   259 G11_127        128    0.000       110.0    
   260 G11_128        129    0.000       109.9    
   261 G11_129        130    0.000       109.7    
   262 G11_130        131    0.000       109.8    
   263 G11_131        132    0.000       109.9    
   264 G11_132        132   0.8640E+05   109.8    
 
   265 G13           -132   0.8640E+05   110.6    
     MULTIPLE LAYERS AND PROPORTIONS :    3, 0.33       4, 0.33       5, 0.33
  TRANSIENT DATA AT THIS LOCATION, ITT =   1
   265 G13_1            1   0.8640E+05   110.6    
   266 G13_2            3    0.000       110.6    
   267 G13_3            4    0.000       110.5    
   268 G13_4            5    0.000       110.4    
   269 G13_5            6    0.000       109.8    
   270 G13_6            7    0.000       109.8    
   271 G13_7            8    0.000       109.7    
   272 G13_8            9    0.000       109.6    
   273 G13_9           10    0.000       109.4    
   274 G13_10          11    0.000       109.4    
   275 G13_11          12    0.000       109.4    
   276 G13_12          13    0.000       109.4    
   277 G13_13          14    0.000       109.4    
   278 G13_14          15    0.000       109.3    
   279 G13_15          16    0.000       109.3    
   280 G13_16          17    0.000       109.3    
   281 G13_17          18    0.000       109.3    
   282 G13_18          19    0.000       109.4    
   283 G13_19          20    0.000       109.4    
   284 G13_20          21    0.000       109.4    
   285 G13_21          22    0.000       109.4    
   286 G13_22          23    0.000       109.4    
   287 G13_23          24    0.000       109.3    
   288 G13_24          25    0.000       109.3    
   289 G13_25          26    0.000       109.4    
   290 G13_26          27    0.000       109.6    
   291 G13_27          28    0.000       109.7    
   292 G13_28          29    0.000       109.7    
   293 G13_29          30    0.000       109.6    
   294 G13_30          31    0.000       109.5    
   295 G13_31          32    0.000       109.5    
   296 G13_32          33    0.000       109.4    
   297 G13_33          34    0.000       109.4    
   298 G13_34          35    0.000       109.3    
   299 G13_35          36    0.000       109.5    
   300 G13_36          37    0.000       109.6    
   301 G13_37          38    0.000       109.6    
   302 G13_38          39    0.000       109.5    
   303 G13_39          40    0.000       109.5    
   304 G13_40          41    0.000       109.5    
   305 G13_41          42    0.000       109.5    
   306 G13_42          43    0.000       109.5    
   307 G13_43          44    0.000       109.5    
   308 G13_44          45    0.000       109.5    
   309 G13_45          46    0.000       109.6    
   310 G13_46          47    0.000       109.5    
   311 G13_47          48    0.000       109.6    
   312 G13_48          49    0.000       109.7    
   313 G13_49          50    0.000       109.6    
   314 G13_50          51    0.000       109.5    
   315 G13_51          52    0.000       109.5    
   316 G13_52          53    0.000       109.4    
   317 G13_53          54    0.000       109.4    
   318 G13_54          55    0.000       109.4    
   319 G13_55          56    0.000       109.4    
   320 G13_56          57    0.000       109.4    
   321 G13_57          58    0.000       109.4    
   322 G13_58          59    0.000       109.4    
   323 G13_59          60    0.000       109.4    
   324 G13_60          61    0.000       109.5    
   325 G13_61          62    0.000       109.4    
   326 G13_62          63    0.000       109.5    
   327 G13_63          64    0.000       109.4    
   328 G13_64          65    0.000       109.4    
   329 G13_65          66    0.000       109.4    
   330 G13_66          67    0.000       109.4    
   331 G13_67          68    0.000       109.5    
   332 G13_68          69    0.000       109.5    
   333 G13_69          70    0.000       109.5    
   334 G13_70          71    0.000       109.6    
   335 G13_71          72    0.000       109.7    
   336 G13_72          73    0.000       109.8    
   337 G13_73          74    0.000       109.8    
   338 G13_74          75    0.000       109.8    
   339 G13_75          76    0.000       109.8    
   340 G13_76          77    0.000       109.8    
   341 G13_77          78    0.000       109.8    
   342 G13_78          79    0.000       110.3    
   343 G13_79          80    0.000       110.3    
   344 G13_80          81    0.000       110.4    
   345 G13_81          82    0.000       110.4    
   346 G13_82          83    0.000       110.4    
   347 G13_83          84    0.000       110.4    
   348 G13_84          85    0.000       110.5    
   349 G13_85          86    0.000       110.5    
   350 G13_86          87    0.000       110.4    
   351 G13_87          88    0.000       110.2    
   352 G13_88          89    0.000       110.2    
   353 G13_89          90    0.000       110.2    
   354 G13_90          91    0.000       110.2    
   355 G13_91          92    0.000       110.3    
   356 G13_92          93    0.000       110.2    
   357 G13_93          94    0.000       110.0    
   358 G13_94          95    0.000       109.9    
   359 G13_95          96    0.000       109.9    
   360 G13_96          97    0.000       109.8    
   361 G13_97          98    0.000       109.9    
   362 G13_98          99    0.000       109.9    
   363 G13_99         100    0.000       110.0    
   364 G13_100        101    0.000       110.0    
   365 G13_101        102    0.000       110.2    
   366 G13_102        103    0.000       110.2    
   367 G13_103        104    0.000       110.3    
   368 G13_104        105    0.000       110.4    
   369 G13_105        106    0.000       110.8    
   370 G13_106        107    0.000       110.7    
   371 G13_107        108    0.000       110.7    
   372 G13_108        109    0.000       110.6    
   373 G13_109        110    0.000       110.5    
   374 G13_110        111    0.000       110.3    
   375 G13_111        112    0.000       110.1    
   376 G13_112        113    0.000       110.2    
   377 G13_113        114    0.000       110.1    
   378 G13_114        115    0.000       110.0    
   379 G13_115        116    0.000       110.0    
   380 G13_116        117    0.000       110.0    
   381 G13_117        118    0.000       110.0    
   382 G13_118        119    0.000       110.0    
   383 G13_119        120    0.000       110.0    
   384 G13_120        121    0.000       109.9    
   385 G13_121        122    0.000       110.0    
   386 G13_122        123    0.000       110.1    
   387 G13_123        124    0.000       110.1    
   388 G13_124        125    0.000       110.0    
   389 G13_125        126    0.000       110.0    
   390 G13_126        127    0.000       110.0    
   391 G13_127        128    0.000       110.0    
   392 G13_128        129    0.000       109.9    
   393 G13_129        130    0.000       109.8    
   394 G13_130        131    0.000       109.8    
   395 G13_131        132    0.000       109.9    
   396 G13_132        132   0.8640E+05   109.8    
 
   397 G12           -132   0.8640E+05   110.7    
     MULTIPLE LAYERS AND PROPORTIONS :    2, 0.25       3, 0.25       4, 0.25       5, 0.25
  TRANSIENT DATA AT THIS LOCATION, ITT =   1
   397 G12_1            1   0.8640E+05   110.7    
   398 G12_2            3    0.000       110.6    
   399 G12_3            4    0.000       110.5    
   400 G12_4            5    0.000       110.4    
   401 G12_5            6    0.000       109.8    
   402 G12_6            7    0.000       109.8    
   403 G12_7            8    0.000       109.7    
   404 G12_8            9    0.000       109.6    
   405 G12_9           10    0.000       109.4    
   406 G12_10          11    0.000       109.4    
   407 G12_11          12    0.000       109.4    
   408 G12_12          13    0.000       109.4    
   409 G12_13          14    0.000       109.4    
   410 G12_14          15    0.000       109.3    
   411 G12_15          16    0.000       109.3    
   412 G12_16          17    0.000       109.3    
   413 G12_17          18    0.000       109.3    
   414 G12_18          19    0.000       109.4    
   415 G12_19          20    0.000       109.4    
   416 G12_20          21    0.000       109.4    
   417 G12_21          22    0.000       109.4    
   418 G12_22          23    0.000       109.4    
   419 G12_23          24    0.000       109.3    
   420 G12_24          25    0.000       109.3    
   421 G12_25          26    0.000       109.4    
   422 G12_26          27    0.000       109.6    
   423 G12_27          28    0.000       109.7    
   424 G12_28          29    0.000       109.7    
   425 G12_29          30    0.000       109.6    
   426 G12_30          31    0.000       109.5    
   427 G12_31          32    0.000       109.5    
   428 G12_32          33    0.000       109.4    
   429 G12_33          34    0.000       109.4    
   430 G12_34          35    0.000       109.3    
   431 G12_35          36    0.000       109.5    
   432 G12_36          37    0.000       109.6    
   433 G12_37          38    0.000       109.6    
   434 G12_38          39    0.000       109.5    
   435 G12_39          40    0.000       109.5    
   436 G12_40          41    0.000       109.5    
   437 G12_41          42    0.000       109.5    
   438 G12_42          43    0.000       109.5    
   439 G12_43          44    0.000       109.5    
   440 G12_44          45    0.000       109.5    
   441 G12_45          46    0.000       109.6    
   442 G12_46          47    0.000       109.5    
   443 G12_47          48    0.000       109.6    
   444 G12_48          49    0.000       109.7    
   445 G12_49          50    0.000       109.6    
   446 G12_50          51    0.000       109.5    
   447 G12_51          52    0.000       109.5    
   448 G12_52          53    0.000       109.4    
   449 G12_53          54    0.000       109.4    
   450 G12_54          55    0.000       109.4    
   451 G12_55          56    0.000       109.4    
   452 G12_56          57    0.000       109.4    
   453 G12_57          58    0.000       109.4    
   454 G12_58          59    0.000       109.4    
   455 G12_59          60    0.000       109.4    
   456 G12_60          61    0.000       109.5    
   457 G12_61          62    0.000       109.4    
   458 G12_62          63    0.000       109.4    
   459 G12_63          64    0.000       109.4    
   460 G12_64          65    0.000       109.4    
   461 G12_65          66    0.000       109.4    
   462 G12_66          67    0.000       109.4    
   463 G12_67          68    0.000       109.5    
   464 G12_68          69    0.000       109.5    
   465 G12_69          70    0.000       109.5    
   466 G12_70          71    0.000       109.6    
   467 G12_71          72    0.000       109.7    
   468 G12_72          73    0.000       109.8    
   469 G12_73          74    0.000       109.8    
   470 G12_74          75    0.000       109.8    
   471 G12_75          76    0.000       109.8    
   472 G12_76          77    0.000       109.8    
   473 G12_77          78    0.000       109.8    
   474 G12_78          79    0.000       110.3    
   475 G12_79          80    0.000       110.3    
   476 G12_80          81    0.000       110.5    
   477 G12_81          82    0.000       110.4    
   478 G12_82          83    0.000       110.4    
   479 G12_83          84    0.000       110.4    
   480 G12_84          85    0.000       110.5    
   481 G12_85          86    0.000       110.4    
   482 G12_86          87    0.000       110.4    
   483 G12_87          88    0.000       110.2    
   484 G12_88          89    0.000       110.3    
   485 G12_89          90    0.000       110.2    
   486 G12_90          91    0.000       110.2    
   487 G12_91          92    0.000       110.2    
   488 G12_92          93    0.000       110.2    
   489 G12_93          94    0.000       110.0    
   490 G12_94          95    0.000       109.9    
   491 G12_95          96    0.000       109.9    
   492 G12_96          97    0.000       109.8    
   493 G12_97          98    0.000       109.9    
   494 G12_98          99    0.000       109.9    
   495 G12_99         100    0.000       110.0    
   496 G12_100        101    0.000       110.0    
   497 G12_101        102    0.000       110.2    
   498 G12_102        103    0.000       110.2    
   499 G12_103        104    0.000       110.3    
   500 G12_104        105    0.000       110.4    
   501 G12_105        106    0.000       110.8    
   502 G12_106        107    0.000       110.7    
   503 G12_107        108    0.000       110.7    
   504 G12_108        109    0.000       110.7    
   505 G12_109        110    0.000       110.5    
   506 G12_110        111    0.000       110.3    
   507 G12_111        112    0.000       110.2    
   508 G12_112        113    0.000       110.2    
   509 G12_113        114    0.000       110.1    
   510 G12_114        115    0.000       110.0    
   511 G12_115        116    0.000       110.0    
   512 G12_116        117    0.000       110.0    
   513 G12_117        118    0.000       110.0    
   514 G12_118        119    0.000       110.0    
   515 G12_119        120    0.000       110.0    
   516 G12_120        121    0.000       110.0    
   517 G12_121        122    0.000       110.0    
   518 G12_122        123    0.000       110.1    
   519 G12_123        124    0.000       110.1    
   520 G12_124        125    0.000       110.0    
   521 G12_125        126    0.000       110.0    
   522 G12_126        127    0.000       110.0    
   523 G12_127        128    0.000       110.0    
   524 G12_128        129    0.000       109.9    
   525 G12_129        130    0.000       109.7    
   526 G12_130        131    0.000       109.8    
   527 G12_131        132    0.000       109.9    
   528 G12_132        132   0.8640E+05   109.8    
 
   529 G21           -132   0.8640E+05   110.6    
     MULTIPLE LAYERS AND PROPORTIONS :    3, 0.33       4, 0.33       5, 0.33
  TRANSIENT DATA AT THIS LOCATION, ITT =   1
   529 G21_1            1   0.8640E+05   110.6    
   530 G21_2            3    0.000       110.5    
   531 G21_3            4    0.000       110.5    
   532 G21_4            5    0.000       110.4    
   533 G21_5            6    0.000       109.8    
   534 G21_6            7    0.000       109.7    
   535 G21_7            8    0.000       109.6    
   536 G21_8            9    0.000       109.6    
   537 G21_9           10    0.000       109.4    
   538 G21_10          11    0.000       109.4    
   539 G21_11          12    0.000       109.4    
   540 G21_12          13    0.000       109.4    
   541 G21_13          14    0.000       109.4    
   542 G21_14          15    0.000       109.3    
   543 G21_15          16    0.000       109.3    
   544 G21_16          17    0.000       109.3    
   545 G21_17          18    0.000       109.3    
   546 G21_18          19    0.000       109.4    
   547 G21_19          20    0.000       109.4    
   548 G21_20          21    0.000       109.4    
   549 G21_21          22    0.000       109.4    
   550 G21_22          23    0.000       109.4    
   551 G21_23          24    0.000       109.3    
   552 G21_24          25    0.000       109.3    
   553 G21_25          26    0.000       109.4    
   554 G21_26          27    0.000       109.6    
   555 G21_27          28    0.000       109.7    
   556 G21_28          29    0.000       109.6    
   557 G21_29          30    0.000       109.6    
   558 G21_30          31    0.000       109.5    
   559 G21_31          32    0.000       109.5    
   560 G21_32          33    0.000       109.4    
   561 G21_33          34    0.000       109.3    
   562 G21_34          35    0.000       109.3    
   563 G21_35          36    0.000       109.5    
   564 G21_36          37    0.000       109.6    
   565 G21_37          38    0.000       109.5    
   566 G21_38          39    0.000       109.5    
   567 G21_39          40    0.000       109.5    
   568 G21_40          41    0.000       109.4    
   569 G21_41          42    0.000       109.5    
   570 G21_42          43    0.000       109.5    
   571 G21_43          44    0.000       109.5    
   572 G21_44          45    0.000       109.5    
   573 G21_45          46    0.000       109.6    
   574 G21_46          47    0.000       109.5    
   575 G21_47          48    0.000       109.6    
   576 G21_48          49    0.000       109.7    
   577 G21_49          50    0.000       109.6    
   578 G21_50          51    0.000       109.5    
   579 G21_51          52    0.000       109.5    
   580 G21_52          53    0.000       109.4    
   581 G21_53          54    0.000       109.4    
   582 G21_54          55    0.000       109.4    
   583 G21_55          56    0.000       109.4    
   584 G21_56          57    0.000       109.4    
   585 G21_57          58    0.000       109.4    
   586 G21_58          59    0.000       109.4    
   587 G21_59          60    0.000       109.4    
   588 G21_60          61    0.000       109.5    
   589 G21_61          62    0.000       109.4    
   590 G21_62          63    0.000       109.4    
   591 G21_63          64    0.000       109.4    
   592 G21_64          65    0.000       109.4    
   593 G21_65          66    0.000       109.4    
   594 G21_66          67    0.000       109.4    
   595 G21_67          68    0.000       109.5    
   596 G21_68          69    0.000       109.5    
   597 G21_69          70    0.000       109.5    
   598 G21_70          71    0.000       109.6    
   599 G21_71          72    0.000       109.7    
   600 G21_72          73    0.000       109.8    
   601 G21_73          74    0.000       109.8    
   602 G21_74          75    0.000       109.8    
   603 G21_75          76    0.000       109.8    
   604 G21_76          77    0.000       109.8    
   605 G21_77          78    0.000       109.8    
   606 G21_78          79    0.000       110.3    
   607 G21_79          80    0.000       110.3    
   608 G21_80          81    0.000       110.5    
   609 G21_81          82    0.000       110.4    
   610 G21_82          83    0.000       110.4    
   611 G21_83          84    0.000       110.4    
   612 G21_84          85    0.000       110.4    
   613 G21_85          86    0.000       110.4    
   614 G21_86          87    0.000       110.4    
   615 G21_87          88    0.000       110.2    
   616 G21_88          89    0.000       110.2    
   617 G21_89          90    0.000       110.2    
   618 G21_90          91    0.000       110.2    
   619 G21_91          92    0.000       110.2    
   620 G21_92          93    0.000       110.2    
   621 G21_93          94    0.000       110.0    
   622 G21_94          95    0.000       109.9    
   623 G21_95          96    0.000       109.9    
   624 G21_96          97    0.000       109.8    
   625 G21_97          98    0.000       109.8    
   626 G21_98          99    0.000       109.9    
   627 G21_99         100    0.000       109.9    
   628 G21_100        101    0.000       110.0    
   629 G21_101        102    0.000       110.2    
   630 G21_102        103    0.000       110.2    
   631 G21_103        104    0.000       110.3    
   632 G21_104        105    0.000       110.4    
   633 G21_105        106    0.000       110.7    
   634 G21_106        107    0.000       110.7    
   635 G21_107        108    0.000       110.7    
   636 G21_108        109    0.000       110.6    
   637 G21_109        110    0.000       110.4    
   638 G21_110        111    0.000       110.2    
   639 G21_111        112    0.000       110.1    
   640 G21_112        113    0.000       110.1    
   641 G21_113        114    0.000       110.1    
   642 G21_114        115    0.000       110.0    
   643 G21_115        116    0.000       110.0    
   644 G21_116        117    0.000       110.0    
   645 G21_117        118    0.000       110.0    
   646 G21_118        119    0.000       110.0    
   647 G21_119        120    0.000       110.0    
   648 G21_120        121    0.000       110.0    
   649 G21_121        122    0.000       109.9    
   650 G21_122        123    0.000       110.1    
   651 G21_123        124    0.000       110.1    
   652 G21_124        125    0.000       110.0    
   653 G21_125        126    0.000       110.0    
   654 G21_126        127    0.000       110.0    
   655 G21_127        128    0.000       110.0    
   656 G21_128        129    0.000       109.9    
   657 G21_129        130    0.000       109.8    
   658 G21_130        131    0.000       109.8    
   659 G21_131        132    0.000       109.8    
   660 G21_132        132   0.8640E+05   109.8    
 

                                                     HEAD CHANGE
                                                      REFERENCE
        OBSERVATION                   ROW     COL    OBSERVATION
  OBS#     NAME       LAY  ROW  COL  OFFSET  OFFSET   (IF > 0)
     1  G10_1          -4    6   18   0.179  -0.166        0
     2  G10_2          -4    6   18   0.179  -0.166        0
     3  G10_3          -4    6   18   0.179  -0.166        0
     4  G10_4          -4    6   18   0.179  -0.166        0
     5  G10_5          -4    6   18   0.179  -0.166        0
     6  G10_6          -4    6   18   0.179  -0.166        0
     7  G10_7          -4    6   18   0.179  -0.166        0
     8  G10_8          -4    6   18   0.179  -0.166        0
     9  G10_9          -4    6   18   0.179  -0.166        0
    10  G10_10         -4    6   18   0.179  -0.166        0
    11  G10_11         -4    6   18   0.179  -0.166        0
    12  G10_12         -4    6   18   0.179  -0.166        0
    13  G10_13         -4    6   18   0.179  -0.166        0
    14  G10_14         -4    6   18   0.179  -0.166        0
    15  G10_15         -4    6   18   0.179  -0.166        0
    16  G10_16         -4    6   18   0.179  -0.166        0
    17  G10_17         -4    6   18   0.179  -0.166        0
    18  G10_18         -4    6   18   0.179  -0.166        0
    19  G10_19         -4    6   18   0.179  -0.166        0
    20  G10_20         -4    6   18   0.179  -0.166        0
    21  G10_21         -4    6   18   0.179  -0.166        0
    22  G10_22         -4    6   18   0.179  -0.166        0
    23  G10_23         -4    6   18   0.179  -0.166        0
    24  G10_24         -4    6   18   0.179  -0.166        0
    25  G10_25         -4    6   18   0.179  -0.166        0
    26  G10_26         -4    6   18   0.179  -0.166        0
    27  G10_27         -4    6   18   0.179  -0.166        0
    28  G10_28         -4    6   18   0.179  -0.166        0
    29  G10_29         -4    6   18   0.179  -0.166        0
    30  G10_30         -4    6   18   0.179  -0.166        0
    31  G10_31         -4    6   18   0.179  -0.166        0
    32  G10_32         -4    6   18   0.179  -0.166        0
    33  G10_33         -4    6   18   0.179  -0.166        0
    34  G10_34         -4    6   18   0.179  -0.166        0
    35  G10_35         -4    6   18   0.179  -0.166        0
    36  G10_36         -4    6   18   0.179  -0.166        0
    37  G10_37         -4    6   18   0.179  -0.166        0
    38  G10_38         -4    6   18   0.179  -0.166        0
    39  G10_39         -4    6   18   0.179  -0.166        0
    40  G10_40         -4    6   18   0.179  -0.166        0
    41  G10_41         -4    6   18   0.179  -0.166        0
    42  G10_42         -4    6   18   0.179  -0.166        0
    43  G10_43         -4    6   18   0.179  -0.166        0
    44  G10_44         -4    6   18   0.179  -0.166        0
    45  G10_45         -4    6   18   0.179  -0.166        0
    46  G10_46         -4    6   18   0.179  -0.166        0
    47  G10_47         -4    6   18   0.179  -0.166        0
    48  G10_48         -4    6   18   0.179  -0.166        0
    49  G10_49         -4    6   18   0.179  -0.166        0
    50  G10_50         -4    6   18   0.179  -0.166        0
    51  G10_51         -4    6   18   0.179  -0.166        0
    52  G10_52         -4    6   18   0.179  -0.166        0
    53  G10_53         -4    6   18   0.179  -0.166        0
    54  G10_54         -4    6   18   0.179  -0.166        0
    55  G10_55         -4    6   18   0.179  -0.166        0
    56  G10_56         -4    6   18   0.179  -0.166        0
    57  G10_57         -4    6   18   0.179  -0.166        0
    58  G10_58         -4    6   18   0.179  -0.166        0
    59  G10_59         -4    6   18   0.179  -0.166        0
    60  G10_60         -4    6   18   0.179  -0.166        0
    61  G10_61         -4    6   18   0.179  -0.166        0
    62  G10_62         -4    6   18   0.179  -0.166        0
    63  G10_63         -4    6   18   0.179  -0.166        0
    64  G10_64         -4    6   18   0.179  -0.166        0
    65  G10_65         -4    6   18   0.179  -0.166        0
    66  G10_66         -4    6   18   0.179  -0.166        0
    67  G10_67         -4    6   18   0.179  -0.166        0
    68  G10_68         -4    6   18   0.179  -0.166        0
    69  G10_69         -4    6   18   0.179  -0.166        0
    70  G10_70         -4    6   18   0.179  -0.166        0
    71  G10_71         -4    6   18   0.179  -0.166        0
    72  G10_72         -4    6   18   0.179  -0.166        0
    73  G10_73         -4    6   18   0.179  -0.166        0
    74  G10_74         -4    6   18   0.179  -0.166        0
    75  G10_75         -4    6   18   0.179  -0.166        0
    76  G10_76         -4    6   18   0.179  -0.166        0
    77  G10_77         -4    6   18   0.179  -0.166        0
    78  G10_78         -4    6   18   0.179  -0.166        0
    79  G10_79         -4    6   18   0.179  -0.166        0
    80  G10_80         -4    6   18   0.179  -0.166        0
    81  G10_81         -4    6   18   0.179  -0.166        0
    82  G10_82         -4    6   18   0.179  -0.166        0
    83  G10_83         -4    6   18   0.179  -0.166        0
    84  G10_84         -4    6   18   0.179  -0.166        0
    85  G10_85         -4    6   18   0.179  -0.166        0
    86  G10_86         -4    6   18   0.179  -0.166        0
    87  G10_87         -4    6   18   0.179  -0.166        0
    88  G10_88         -4    6   18   0.179  -0.166        0
    89  G10_89         -4    6   18   0.179  -0.166        0
    90  G10_90         -4    6   18   0.179  -0.166        0
    91  G10_91         -4    6   18   0.179  -0.166        0
    92  G10_92         -4    6   18   0.179  -0.166        0
    93  G10_93         -4    6   18   0.179  -0.166        0
    94  G10_94         -4    6   18   0.179  -0.166        0
    95  G10_95         -4    6   18   0.179  -0.166        0
    96  G10_96         -4    6   18   0.179  -0.166        0
    97  G10_97         -4    6   18   0.179  -0.166        0
    98  G10_98         -4    6   18   0.179  -0.166        0
    99  G10_99         -4    6   18   0.179  -0.166        0
   100  G10_100        -4    6   18   0.179  -0.166        0
   101  G10_101        -4    6   18   0.179  -0.166        0
   102  G10_102        -4    6   18   0.179  -0.166        0
   103  G10_103        -4    6   18   0.179  -0.166        0
   104  G10_104        -4    6   18   0.179  -0.166        0
   105  G10_105        -4    6   18   0.179  -0.166        0
   106  G10_106        -4    6   18   0.179  -0.166        0
   107  G10_107        -4    6   18   0.179  -0.166        0
   108  G10_108        -4    6   18   0.179  -0.166        0
   109  G10_109        -4    6   18   0.179  -0.166        0
   110  G10_110        -4    6   18   0.179  -0.166        0
   111  G10_111        -4    6   18   0.179  -0.166        0
   112  G10_112        -4    6   18   0.179  -0.166        0
   113  G10_113        -4    6   18   0.179  -0.166        0
   114  G10_114        -4    6   18   0.179  -0.166        0
   115  G10_115        -4    6   18   0.179  -0.166        0
   116  G10_116        -4    6   18   0.179  -0.166        0
   117  G10_117        -4    6   18   0.179  -0.166        0
   118  G10_118        -4    6   18   0.179  -0.166        0
   119  G10_119        -4    6   18   0.179  -0.166        0
   120  G10_120        -4    6   18   0.179  -0.166        0
   121  G10_121        -4    6   18   0.179  -0.166        0
   122  G10_122        -4    6   18   0.179  -0.166        0
   123  G10_123        -4    6   18   0.179  -0.166        0
   124  G10_124        -4    6   18   0.179  -0.166        0
   125  G10_125        -4    6   18   0.179  -0.166        0
   126  G10_126        -4    6   18   0.179  -0.166        0
   127  G10_127        -4    6   18   0.179  -0.166        0
   128  G10_128        -4    6   18   0.179  -0.166        0
   129  G10_129        -4    6   18   0.179  -0.166        0
   130  G10_130        -4    6   18   0.179  -0.166        0
   131  G10_131        -4    6   18   0.179  -0.166        0
   132  G10_132        -4    6   18   0.179  -0.166        0
   133  G11_1          -4   16   27  -0.253   0.440        0
   134  G11_2          -4   16   27  -0.253   0.440        0
   135  G11_3          -4   16   27  -0.253   0.440        0
   136  G11_4          -4   16   27  -0.253   0.440        0
   137  G11_5          -4   16   27  -0.253   0.440        0
   138  G11_6          -4   16   27  -0.253   0.440        0
   139  G11_7          -4   16   27  -0.253   0.440        0
   140  G11_8          -4   16   27  -0.253   0.440        0
   141  G11_9          -4   16   27  -0.253   0.440        0
   142  G11_10         -4   16   27  -0.253   0.440        0
   143  G11_11         -4   16   27  -0.253   0.440        0
   144  G11_12         -4   16   27  -0.253   0.440        0
   145  G11_13         -4   16   27  -0.253   0.440        0
   146  G11_14         -4   16   27  -0.253   0.440        0
   147  G11_15         -4   16   27  -0.253   0.440        0
   148  G11_16         -4   16   27  -0.253   0.440        0
   149  G11_17         -4   16   27  -0.253   0.440        0
   150  G11_18         -4   16   27  -0.253   0.440        0
   151  G11_19         -4   16   27  -0.253   0.440        0
   152  G11_20         -4   16   27  -0.253   0.440        0
   153  G11_21         -4   16   27  -0.253   0.440        0
   154  G11_22         -4   16   27  -0.253   0.440        0
   155  G11_23         -4   16   27  -0.253   0.440        0
   156  G11_24         -4   16   27  -0.253   0.440        0
   157  G11_25         -4   16   27  -0.253   0.440        0
   158  G11_26         -4   16   27  -0.253   0.440        0
   159  G11_27         -4   16   27  -0.253   0.440        0
   160  G11_28         -4   16   27  -0.253   0.440        0
   161  G11_29         -4   16   27  -0.253   0.440        0
   162  G11_30         -4   16   27  -0.253   0.440        0
   163  G11_31         -4   16   27  -0.253   0.440        0
   164  G11_32         -4   16   27  -0.253   0.440        0
   165  G11_33         -4   16   27  -0.253   0.440        0
   166  G11_34         -4   16   27  -0.253   0.440        0
   167  G11_35         -4   16   27  -0.253   0.440        0
   168  G11_36         -4   16   27  -0.253   0.440        0
   169  G11_37         -4   16   27  -0.253   0.440        0
   170  G11_38         -4   16   27  -0.253   0.440        0
   171  G11_39         -4   16   27  -0.253   0.440        0
   172  G11_40         -4   16   27  -0.253   0.440        0
   173  G11_41         -4   16   27  -0.253   0.440        0
   174  G11_42         -4   16   27  -0.253   0.440        0
   175  G11_43         -4   16   27  -0.253   0.440        0
   176  G11_44         -4   16   27  -0.253   0.440        0
   177  G11_45         -4   16   27  -0.253   0.440        0
   178  G11_46         -4   16   27  -0.253   0.440        0
   179  G11_47         -4   16   27  -0.253   0.440        0
   180  G11_48         -4   16   27  -0.253   0.440        0
   181  G11_49         -4   16   27  -0.253   0.440        0
   182  G11_50         -4   16   27  -0.253   0.440        0
   183  G11_51         -4   16   27  -0.253   0.440        0
   184  G11_52         -4   16   27  -0.253   0.440        0
   185  G11_53         -4   16   27  -0.253   0.440        0
   186  G11_54         -4   16   27  -0.253   0.440        0
   187  G11_55         -4   16   27  -0.253   0.440        0
   188  G11_56         -4   16   27  -0.253   0.440        0
   189  G11_57         -4   16   27  -0.253   0.440        0
   190  G11_58         -4   16   27  -0.253   0.440        0
   191  G11_59         -4   16   27  -0.253   0.440        0
   192  G11_60         -4   16   27  -0.253   0.440        0
   193  G11_61         -4   16   27  -0.253   0.440        0
   194  G11_62         -4   16   27  -0.253   0.440        0
   195  G11_63         -4   16   27  -0.253   0.440        0
   196  G11_64         -4   16   27  -0.253   0.440        0
   197  G11_65         -4   16   27  -0.253   0.440        0
   198  G11_66         -4   16   27  -0.253   0.440        0
   199  G11_67         -4   16   27  -0.253   0.440        0
   200  G11_68         -4   16   27  -0.253   0.440        0
   201  G11_69         -4   16   27  -0.253   0.440        0
   202  G11_70         -4   16   27  -0.253   0.440        0
   203  G11_71         -4   16   27  -0.253   0.440        0
   204  G11_72         -4   16   27  -0.253   0.440        0
   205  G11_73         -4   16   27  -0.253   0.440        0
   206  G11_74         -4   16   27  -0.253   0.440        0
   207  G11_75         -4   16   27  -0.253   0.440        0
   208  G11_76         -4   16   27  -0.253   0.440        0
   209  G11_77         -4   16   27  -0.253   0.440        0
   210  G11_78         -4   16   27  -0.253   0.440        0
   211  G11_79         -4   16   27  -0.253   0.440        0
   212  G11_80         -4   16   27  -0.253   0.440        0
   213  G11_81         -4   16   27  -0.253   0.440        0
   214  G11_82         -4   16   27  -0.253   0.440        0
   215  G11_83         -4   16   27  -0.253   0.440        0
   216  G11_84         -4   16   27  -0.253   0.440        0
   217  G11_85         -4   16   27  -0.253   0.440        0
   218  G11_86         -4   16   27  -0.253   0.440        0
   219  G11_87         -4   16   27  -0.253   0.440        0
   220  G11_88         -4   16   27  -0.253   0.440        0
   221  G11_89         -4   16   27  -0.253   0.440        0
   222  G11_90         -4   16   27  -0.253   0.440        0
   223  G11_91         -4   16   27  -0.253   0.440        0
   224  G11_92         -4   16   27  -0.253   0.440        0
   225  G11_93         -4   16   27  -0.253   0.440        0
   226  G11_94         -4   16   27  -0.253   0.440        0
   227  G11_95         -4   16   27  -0.253   0.440        0
   228  G11_96         -4   16   27  -0.253   0.440        0
   229  G11_97         -4   16   27  -0.253   0.440        0
   230  G11_98         -4   16   27  -0.253   0.440        0
   231  G11_99         -4   16   27  -0.253   0.440        0
   232  G11_100        -4   16   27  -0.253   0.440        0
   233  G11_101        -4   16   27  -0.253   0.440        0
   234  G11_102        -4   16   27  -0.253   0.440        0
   235  G11_103        -4   16   27  -0.253   0.440        0
   236  G11_104        -4   16   27  -0.253   0.440        0
   237  G11_105        -4   16   27  -0.253   0.440        0
   238  G11_106        -4   16   27  -0.253   0.440        0
   239  G11_107        -4   16   27  -0.253   0.440        0
   240  G11_108        -4   16   27  -0.253   0.440        0
   241  G11_109        -4   16   27  -0.253   0.440        0
   242  G11_110        -4   16   27  -0.253   0.440        0
   243  G11_111        -4   16   27  -0.253   0.440        0
   244  G11_112        -4   16   27  -0.253   0.440        0
   245  G11_113        -4   16   27  -0.253   0.440        0
   246  G11_114        -4   16   27  -0.253   0.440        0
   247  G11_115        -4   16   27  -0.253   0.440        0
   248  G11_116        -4   16   27  -0.253   0.440        0
   249  G11_117        -4   16   27  -0.253   0.440        0
   250  G11_118        -4   16   27  -0.253   0.440        0
   251  G11_119        -4   16   27  -0.253   0.440        0
   252  G11_120        -4   16   27  -0.253   0.440        0
   253  G11_121        -4   16   27  -0.253   0.440        0
   254  G11_122        -4   16   27  -0.253   0.440        0
   255  G11_123        -4   16   27  -0.253   0.440        0
   256  G11_124        -4   16   27  -0.253   0.440        0
   257  G11_125        -4   16   27  -0.253   0.440        0
   258  G11_126        -4   16   27  -0.253   0.440        0
   259  G11_127        -4   16   27  -0.253   0.440        0
   260  G11_128        -4   16   27  -0.253   0.440        0
   261  G11_129        -4   16   27  -0.253   0.440        0
   262  G11_130        -4   16   27  -0.253   0.440        0
   263  G11_131        -4   16   27  -0.253   0.440        0
   264  G11_132        -4   16   27  -0.253   0.440        0
   265  G13_1          -3   18    9  -0.006  -0.060        0
   266  G13_2          -3   18    9  -0.006  -0.060        0
   267  G13_3          -3   18    9  -0.006  -0.060        0
   268  G13_4          -3   18    9  -0.006  -0.060        0
   269  G13_5          -3   18    9  -0.006  -0.060        0
   270  G13_6          -3   18    9  -0.006  -0.060        0
   271  G13_7          -3   18    9  -0.006  -0.060        0
   272  G13_8          -3   18    9  -0.006  -0.060        0
   273  G13_9          -3   18    9  -0.006  -0.060        0
   274  G13_10         -3   18    9  -0.006  -0.060        0
   275  G13_11         -3   18    9  -0.006  -0.060        0
   276  G13_12         -3   18    9  -0.006  -0.060        0
   277  G13_13         -3   18    9  -0.006  -0.060        0
   278  G13_14         -3   18    9  -0.006  -0.060        0
   279  G13_15         -3   18    9  -0.006  -0.060        0
   280  G13_16         -3   18    9  -0.006  -0.060        0
   281  G13_17         -3   18    9  -0.006  -0.060        0
   282  G13_18         -3   18    9  -0.006  -0.060        0
   283  G13_19         -3   18    9  -0.006  -0.060        0
   284  G13_20         -3   18    9  -0.006  -0.060        0
   285  G13_21         -3   18    9  -0.006  -0.060        0
   286  G13_22         -3   18    9  -0.006  -0.060        0
   287  G13_23         -3   18    9  -0.006  -0.060        0
   288  G13_24         -3   18    9  -0.006  -0.060        0
   289  G13_25         -3   18    9  -0.006  -0.060        0
   290  G13_26         -3   18    9  -0.006  -0.060        0
   291  G13_27         -3   18    9  -0.006  -0.060        0
   292  G13_28         -3   18    9  -0.006  -0.060        0
   293  G13_29         -3   18    9  -0.006  -0.060        0
   294  G13_30         -3   18    9  -0.006  -0.060        0
   295  G13_31         -3   18    9  -0.006  -0.060        0
   296  G13_32         -3   18    9  -0.006  -0.060        0
   297  G13_33         -3   18    9  -0.006  -0.060        0
   298  G13_34         -3   18    9  -0.006  -0.060        0
   299  G13_35         -3   18    9  -0.006  -0.060        0
   300  G13_36         -3   18    9  -0.006  -0.060        0
   301  G13_37         -3   18    9  -0.006  -0.060        0
   302  G13_38         -3   18    9  -0.006  -0.060        0
   303  G13_39         -3   18    9  -0.006  -0.060        0
   304  G13_40         -3   18    9  -0.006  -0.060        0
   305  G13_41         -3   18    9  -0.006  -0.060        0
   306  G13_42         -3   18    9  -0.006  -0.060        0
   307  G13_43         -3   18    9  -0.006  -0.060        0
   308  G13_44         -3   18    9  -0.006  -0.060        0
   309  G13_45         -3   18    9  -0.006  -0.060        0
   310  G13_46         -3   18    9  -0.006  -0.060        0
   311  G13_47         -3   18    9  -0.006  -0.060        0
   312  G13_48         -3   18    9  -0.006  -0.060        0
   313  G13_49         -3   18    9  -0.006  -0.060        0
   314  G13_50         -3   18    9  -0.006  -0.060        0
   315  G13_51         -3   18    9  -0.006  -0.060        0
   316  G13_52         -3   18    9  -0.006  -0.060        0
   317  G13_53         -3   18    9  -0.006  -0.060        0
   318  G13_54         -3   18    9  -0.006  -0.060        0
   319  G13_55         -3   18    9  -0.006  -0.060        0
   320  G13_56         -3   18    9  -0.006  -0.060        0
   321  G13_57         -3   18    9  -0.006  -0.060        0
   322  G13_58         -3   18    9  -0.006  -0.060        0
   323  G13_59         -3   18    9  -0.006  -0.060        0
   324  G13_60         -3   18    9  -0.006  -0.060        0
   325  G13_61         -3   18    9  -0.006  -0.060        0
   326  G13_62         -3   18    9  -0.006  -0.060        0
   327  G13_63         -3   18    9  -0.006  -0.060        0
   328  G13_64         -3   18    9  -0.006  -0.060        0
   329  G13_65         -3   18    9  -0.006  -0.060        0
   330  G13_66         -3   18    9  -0.006  -0.060        0
   331  G13_67         -3   18    9  -0.006  -0.060        0
   332  G13_68         -3   18    9  -0.006  -0.060        0
   333  G13_69         -3   18    9  -0.006  -0.060        0
   334  G13_70         -3   18    9  -0.006  -0.060        0
   335  G13_71         -3   18    9  -0.006  -0.060        0
   336  G13_72         -3   18    9  -0.006  -0.060        0
   337  G13_73         -3   18    9  -0.006  -0.060        0
   338  G13_74         -3   18    9  -0.006  -0.060        0
   339  G13_75         -3   18    9  -0.006  -0.060        0
   340  G13_76         -3   18    9  -0.006  -0.060        0
   341  G13_77         -3   18    9  -0.006  -0.060        0
   342  G13_78         -3   18    9  -0.006  -0.060        0
   343  G13_79         -3   18    9  -0.006  -0.060        0
   344  G13_80         -3   18    9  -0.006  -0.060        0
   345  G13_81         -3   18    9  -0.006  -0.060        0
   346  G13_82         -3   18    9  -0.006  -0.060        0
   347  G13_83         -3   18    9  -0.006  -0.060        0
   348  G13_84         -3   18    9  -0.006  -0.060        0
   349  G13_85         -3   18    9  -0.006  -0.060        0
   350  G13_86         -3   18    9  -0.006  -0.060        0
   351  G13_87         -3   18    9  -0.006  -0.060        0
   352  G13_88         -3   18    9  -0.006  -0.060        0
   353  G13_89         -3   18    9  -0.006  -0.060        0
   354  G13_90         -3   18    9  -0.006  -0.060        0
   355  G13_91         -3   18    9  -0.006  -0.060        0
   356  G13_92         -3   18    9  -0.006  -0.060        0
   357  G13_93         -3   18    9  -0.006  -0.060        0
   358  G13_94         -3   18    9  -0.006  -0.060        0
   359  G13_95         -3   18    9  -0.006  -0.060        0
   360  G13_96         -3   18    9  -0.006  -0.060        0
   361  G13_97         -3   18    9  -0.006  -0.060        0
   362  G13_98         -3   18    9  -0.006  -0.060        0
   363  G13_99         -3   18    9  -0.006  -0.060        0
   364  G13_100        -3   18    9  -0.006  -0.060        0
   365  G13_101        -3   18    9  -0.006  -0.060        0
   366  G13_102        -3   18    9  -0.006  -0.060        0
   367  G13_103        -3   18    9  -0.006  -0.060        0
   368  G13_104        -3   18    9  -0.006  -0.060        0
   369  G13_105        -3   18    9  -0.006  -0.060        0
   370  G13_106        -3   18    9  -0.006  -0.060        0
   371  G13_107        -3   18    9  -0.006  -0.060        0
   372  G13_108        -3   18    9  -0.006  -0.060        0
   373  G13_109        -3   18    9  -0.006  -0.060        0
   374  G13_110        -3   18    9  -0.006  -0.060        0
   375  G13_111        -3   18    9  -0.006  -0.060        0
   376  G13_112        -3   18    9  -0.006  -0.060        0
   377  G13_113        -3   18    9  -0.006  -0.060        0
   378  G13_114        -3   18    9  -0.006  -0.060        0
   379  G13_115        -3   18    9  -0.006  -0.060        0
   380  G13_116        -3   18    9  -0.006  -0.060        0
   381  G13_117        -3   18    9  -0.006  -0.060        0
   382  G13_118        -3   18    9  -0.006  -0.060        0
   383  G13_119        -3   18    9  -0.006  -0.060        0
   384  G13_120        -3   18    9  -0.006  -0.060        0
   385  G13_121        -3   18    9  -0.006  -0.060        0
   386  G13_122        -3   18    9  -0.006  -0.060        0
   387  G13_123        -3   18    9  -0.006  -0.060        0
   388  G13_124        -3   18    9  -0.006  -0.060        0
   389  G13_125        -3   18    9  -0.006  -0.060        0
   390  G13_126        -3   18    9  -0.006  -0.060        0
   391  G13_127        -3   18    9  -0.006  -0.060        0
   392  G13_128        -3   18    9  -0.006  -0.060        0
   393  G13_129        -3   18    9  -0.006  -0.060        0
   394  G13_130        -3   18    9  -0.006  -0.060        0
   395  G13_131        -3   18    9  -0.006  -0.060        0
   396  G13_132        -3   18    9  -0.006  -0.060        0
   397  G12_1          -4   17   17   0.151   0.310        0
   398  G12_2          -4   17   17   0.151   0.310        0
   399  G12_3          -4   17   17   0.151   0.310        0
   400  G12_4          -4   17   17   0.151   0.310        0
   401  G12_5          -4   17   17   0.151   0.310        0
   402  G12_6          -4   17   17   0.151   0.310        0
   403  G12_7          -4   17   17   0.151   0.310        0
   404  G12_8          -4   17   17   0.151   0.310        0
   405  G12_9          -4   17   17   0.151   0.310        0
   406  G12_10         -4   17   17   0.151   0.310        0
   407  G12_11         -4   17   17   0.151   0.310        0
   408  G12_12         -4   17   17   0.151   0.310        0
   409  G12_13         -4   17   17   0.151   0.310        0
   410  G12_14         -4   17   17   0.151   0.310        0
   411  G12_15         -4   17   17   0.151   0.310        0
   412  G12_16         -4   17   17   0.151   0.310        0
   413  G12_17         -4   17   17   0.151   0.310        0
   414  G12_18         -4   17   17   0.151   0.310        0
   415  G12_19         -4   17   17   0.151   0.310        0
   416  G12_20         -4   17   17   0.151   0.310        0
   417  G12_21         -4   17   17   0.151   0.310        0
   418  G12_22         -4   17   17   0.151   0.310        0
   419  G12_23         -4   17   17   0.151   0.310        0
   420  G12_24         -4   17   17   0.151   0.310        0
   421  G12_25         -4   17   17   0.151   0.310        0
   422  G12_26         -4   17   17   0.151   0.310        0
   423  G12_27         -4   17   17   0.151   0.310        0
   424  G12_28         -4   17   17   0.151   0.310        0
   425  G12_29         -4   17   17   0.151   0.310        0
   426  G12_30         -4   17   17   0.151   0.310        0
   427  G12_31         -4   17   17   0.151   0.310        0
   428  G12_32         -4   17   17   0.151   0.310        0
   429  G12_33         -4   17   17   0.151   0.310        0
   430  G12_34         -4   17   17   0.151   0.310        0
   431  G12_35         -4   17   17   0.151   0.310        0
   432  G12_36         -4   17   17   0.151   0.310        0
   433  G12_37         -4   17   17   0.151   0.310        0
   434  G12_38         -4   17   17   0.151   0.310        0
   435  G12_39         -4   17   17   0.151   0.310        0
   436  G12_40         -4   17   17   0.151   0.310        0
   437  G12_41         -4   17   17   0.151   0.310        0
   438  G12_42         -4   17   17   0.151   0.310        0
   439  G12_43         -4   17   17   0.151   0.310        0
   440  G12_44         -4   17   17   0.151   0.310        0
   441  G12_45         -4   17   17   0.151   0.310        0
   442  G12_46         -4   17   17   0.151   0.310        0
   443  G12_47         -4   17   17   0.151   0.310        0
   444  G12_48         -4   17   17   0.151   0.310        0
   445  G12_49         -4   17   17   0.151   0.310        0
   446  G12_50         -4   17   17   0.151   0.310        0
   447  G12_51         -4   17   17   0.151   0.310        0
   448  G12_52         -4   17   17   0.151   0.310        0
   449  G12_53         -4   17   17   0.151   0.310        0
   450  G12_54         -4   17   17   0.151   0.310        0
   451  G12_55         -4   17   17   0.151   0.310        0
   452  G12_56         -4   17   17   0.151   0.310        0
   453  G12_57         -4   17   17   0.151   0.310        0
   454  G12_58         -4   17   17   0.151   0.310        0
   455  G12_59         -4   17   17   0.151   0.310        0
   456  G12_60         -4   17   17   0.151   0.310        0
   457  G12_61         -4   17   17   0.151   0.310        0
   458  G12_62         -4   17   17   0.151   0.310        0
   459  G12_63         -4   17   17   0.151   0.310        0
   460  G12_64         -4   17   17   0.151   0.310        0
   461  G12_65         -4   17   17   0.151   0.310        0
   462  G12_66         -4   17   17   0.151   0.310        0
   463  G12_67         -4   17   17   0.151   0.310        0
   464  G12_68         -4   17   17   0.151   0.310        0
   465  G12_69         -4   17   17   0.151   0.310        0
   466  G12_70         -4   17   17   0.151   0.310        0
   467  G12_71         -4   17   17   0.151   0.310        0
   468  G12_72         -4   17   17   0.151   0.310        0
   469  G12_73         -4   17   17   0.151   0.310        0
   470  G12_74         -4   17   17   0.151   0.310        0
   471  G12_75         -4   17   17   0.151   0.310        0
   472  G12_76         -4   17   17   0.151   0.310        0
   473  G12_77         -4   17   17   0.151   0.310        0
   474  G12_78         -4   17   17   0.151   0.310        0
   475  G12_79         -4   17   17   0.151   0.310        0
   476  G12_80         -4   17   17   0.151   0.310        0
   477  G12_81         -4   17   17   0.151   0.310        0
   478  G12_82         -4   17   17   0.151   0.310        0
   479  G12_83         -4   17   17   0.151   0.310        0
   480  G12_84         -4   17   17   0.151   0.310        0
   481  G12_85         -4   17   17   0.151   0.310        0
   482  G12_86         -4   17   17   0.151   0.310        0
   483  G12_87         -4   17   17   0.151   0.310        0
   484  G12_88         -4   17   17   0.151   0.310        0
   485  G12_89         -4   17   17   0.151   0.310        0
   486  G12_90         -4   17   17   0.151   0.310        0
   487  G12_91         -4   17   17   0.151   0.310        0
   488  G12_92         -4   17   17   0.151   0.310        0
   489  G12_93         -4   17   17   0.151   0.310        0
   490  G12_94         -4   17   17   0.151   0.310        0
   491  G12_95         -4   17   17   0.151   0.310        0
   492  G12_96         -4   17   17   0.151   0.310        0
   493  G12_97         -4   17   17   0.151   0.310        0
   494  G12_98         -4   17   17   0.151   0.310        0
   495  G12_99         -4   17   17   0.151   0.310        0
   496  G12_100        -4   17   17   0.151   0.310        0
   497  G12_101        -4   17   17   0.151   0.310        0
   498  G12_102        -4   17   17   0.151   0.310        0
   499  G12_103        -4   17   17   0.151   0.310        0
   500  G12_104        -4   17   17   0.151   0.310        0
   501  G12_105        -4   17   17   0.151   0.310        0
   502  G12_106        -4   17   17   0.151   0.310        0
   503  G12_107        -4   17   17   0.151   0.310        0
   504  G12_108        -4   17   17   0.151   0.310        0
   505  G12_109        -4   17   17   0.151   0.310        0
   506  G12_110        -4   17   17   0.151   0.310        0
   507  G12_111        -4   17   17   0.151   0.310        0
   508  G12_112        -4   17   17   0.151   0.310        0
   509  G12_113        -4   17   17   0.151   0.310        0
   510  G12_114        -4   17   17   0.151   0.310        0
   511  G12_115        -4   17   17   0.151   0.310        0
   512  G12_116        -4   17   17   0.151   0.310        0
   513  G12_117        -4   17   17   0.151   0.310        0
   514  G12_118        -4   17   17   0.151   0.310        0
   515  G12_119        -4   17   17   0.151   0.310        0
   516  G12_120        -4   17   17   0.151   0.310        0
   517  G12_121        -4   17   17   0.151   0.310        0
   518  G12_122        -4   17   17   0.151   0.310        0
   519  G12_123        -4   17   17   0.151   0.310        0
   520  G12_124        -4   17   17   0.151   0.310        0
   521  G12_125        -4   17   17   0.151   0.310        0
   522  G12_126        -4   17   17   0.151   0.310        0
   523  G12_127        -4   17   17   0.151   0.310        0
   524  G12_128        -4   17   17   0.151   0.310        0
   525  G12_129        -4   17   17   0.151   0.310        0
   526  G12_130        -4   17   17   0.151   0.310        0
   527  G12_131        -4   17   17   0.151   0.310        0
   528  G12_132        -4   17   17   0.151   0.310        0
   529  G21_1          -3   27    6  -0.430  -0.393        0
   530  G21_2          -3   27    6  -0.430  -0.393        0
   531  G21_3          -3   27    6  -0.430  -0.393        0
   532  G21_4          -3   27    6  -0.430  -0.393        0
   533  G21_5          -3   27    6  -0.430  -0.393        0
   534  G21_6          -3   27    6  -0.430  -0.393        0
   535  G21_7          -3   27    6  -0.430  -0.393        0
   536  G21_8          -3   27    6  -0.430  -0.393        0
   537  G21_9          -3   27    6  -0.430  -0.393        0
   538  G21_10         -3   27    6  -0.430  -0.393        0
   539  G21_11         -3   27    6  -0.430  -0.393        0
   540  G21_12         -3   27    6  -0.430  -0.393        0
   541  G21_13         -3   27    6  -0.430  -0.393        0
   542  G21_14         -3   27    6  -0.430  -0.393        0
   543  G21_15         -3   27    6  -0.430  -0.393        0
   544  G21_16         -3   27    6  -0.430  -0.393        0
   545  G21_17         -3   27    6  -0.430  -0.393        0
   546  G21_18         -3   27    6  -0.430  -0.393        0
   547  G21_19         -3   27    6  -0.430  -0.393        0
   548  G21_20         -3   27    6  -0.430  -0.393        0
   549  G21_21         -3   27    6  -0.430  -0.393        0
   550  G21_22         -3   27    6  -0.430  -0.393        0
   551  G21_23         -3   27    6  -0.430  -0.393        0
   552  G21_24         -3   27    6  -0.430  -0.393        0
   553  G21_25         -3   27    6  -0.430  -0.393        0
   554  G21_26         -3   27    6  -0.430  -0.393        0
   555  G21_27         -3   27    6  -0.430  -0.393        0
   556  G21_28         -3   27    6  -0.430  -0.393        0
   557  G21_29         -3   27    6  -0.430  -0.393        0
   558  G21_30         -3   27    6  -0.430  -0.393        0
   559  G21_31         -3   27    6  -0.430  -0.393        0
   560  G21_32         -3   27    6  -0.430  -0.393        0
   561  G21_33         -3   27    6  -0.430  -0.393        0
   562  G21_34         -3   27    6  -0.430  -0.393        0
   563  G21_35         -3   27    6  -0.430  -0.393        0
   564  G21_36         -3   27    6  -0.430  -0.393        0
   565  G21_37         -3   27    6  -0.430  -0.393        0
   566  G21_38         -3   27    6  -0.430  -0.393        0
   567  G21_39         -3   27    6  -0.430  -0.393        0
   568  G21_40         -3   27    6  -0.430  -0.393        0
   569  G21_41         -3   27    6  -0.430  -0.393        0
   570  G21_42         -3   27    6  -0.430  -0.393        0
   571  G21_43         -3   27    6  -0.430  -0.393        0
   572  G21_44         -3   27    6  -0.430  -0.393        0
   573  G21_45         -3   27    6  -0.430  -0.393        0
   574  G21_46         -3   27    6  -0.430  -0.393        0
   575  G21_47         -3   27    6  -0.430  -0.393        0
   576  G21_48         -3   27    6  -0.430  -0.393        0
   577  G21_49         -3   27    6  -0.430  -0.393        0
   578  G21_50         -3   27    6  -0.430  -0.393        0
   579  G21_51         -3   27    6  -0.430  -0.393        0
   580  G21_52         -3   27    6  -0.430  -0.393        0
   581  G21_53         -3   27    6  -0.430  -0.393        0
   582  G21_54         -3   27    6  -0.430  -0.393        0
   583  G21_55         -3   27    6  -0.430  -0.393        0
   584  G21_56         -3   27    6  -0.430  -0.393        0
   585  G21_57         -3   27    6  -0.430  -0.393        0
   586  G21_58         -3   27    6  -0.430  -0.393        0
   587  G21_59         -3   27    6  -0.430  -0.393        0
   588  G21_60         -3   27    6  -0.430  -0.393        0
   589  G21_61         -3   27    6  -0.430  -0.393        0
   590  G21_62         -3   27    6  -0.430  -0.393        0
   591  G21_63         -3   27    6  -0.430  -0.393        0
   592  G21_64         -3   27    6  -0.430  -0.393        0
   593  G21_65         -3   27    6  -0.430  -0.393        0
   594  G21_66         -3   27    6  -0.430  -0.393        0
   595  G21_67         -3   27    6  -0.430  -0.393        0
   596  G21_68         -3   27    6  -0.430  -0.393        0
   597  G21_69         -3   27    6  -0.430  -0.393        0
   598  G21_70         -3   27    6  -0.430  -0.393        0
   599  G21_71         -3   27    6  -0.430  -0.393        0
   600  G21_72         -3   27    6  -0.430  -0.393        0
   601  G21_73         -3   27    6  -0.430  -0.393        0
   602  G21_74         -3   27    6  -0.430  -0.393        0
   603  G21_75         -3   27    6  -0.430  -0.393        0
   604  G21_76         -3   27    6  -0.430  -0.393        0
   605  G21_77         -3   27    6  -0.430  -0.393        0
   606  G21_78         -3   27    6  -0.430  -0.393        0
   607  G21_79         -3   27    6  -0.430  -0.393        0
   608  G21_80         -3   27    6  -0.430  -0.393        0
   609  G21_81         -3   27    6  -0.430  -0.393        0
   610  G21_82         -3   27    6  -0.430  -0.393        0
   611  G21_83         -3   27    6  -0.430  -0.393        0
   612  G21_84         -3   27    6  -0.430  -0.393        0
   613  G21_85         -3   27    6  -0.430  -0.393        0
   614  G21_86         -3   27    6  -0.430  -0.393        0
   615  G21_87         -3   27    6  -0.430  -0.393        0
   616  G21_88         -3   27    6  -0.430  -0.393        0
   617  G21_89         -3   27    6  -0.430  -0.393        0
   618  G21_90         -3   27    6  -0.430  -0.393        0
   619  G21_91         -3   27    6  -0.430  -0.393        0
   620  G21_92         -3   27    6  -0.430  -0.393        0
   621  G21_93         -3   27    6  -0.430  -0.393        0
   622  G21_94         -3   27    6  -0.430  -0.393        0
   623  G21_95         -3   27    6  -0.430  -0.393        0
   624  G21_96         -3   27    6  -0.430  -0.393        0
   625  G21_97         -3   27    6  -0.430  -0.393        0
   626  G21_98         -3   27    6  -0.430  -0.393        0
   627  G21_99         -3   27    6  -0.430  -0.393        0
   628  G21_100        -3   27    6  -0.430  -0.393        0
   629  G21_101        -3   27    6  -0.430  -0.393        0
   630  G21_102        -3   27    6  -0.430  -0.393        0
   631  G21_103        -3   27    6  -0.430  -0.393        0
   632  G21_104        -3   27    6  -0.430  -0.393        0
   633  G21_105        -3   27    6  -0.430  -0.393        0
   634  G21_106        -3   27    6  -0.430  -0.393        0
   635  G21_107        -3   27    6  -0.430  -0.393        0
   636  G21_108        -3   27    6  -0.430  -0.393        0
   637  G21_109        -3   27    6  -0.430  -0.393        0
   638  G21_110        -3   27    6  -0.430  -0.393        0
   639  G21_111        -3   27    6  -0.430  -0.393        0
   640  G21_112        -3   27    6  -0.430  -0.393        0
   641  G21_113        -3   27    6  -0.430  -0.393        0
   642  G21_114        -3   27    6  -0.430  -0.393        0
   643  G21_115        -3   27    6  -0.430  -0.393        0
   644  G21_116        -3   27    6  -0.430  -0.393        0
   645  G21_117        -3   27    6  -0.430  -0.393        0
   646  G21_118        -3   27    6  -0.430  -0.393        0
   647  G21_119        -3   27    6  -0.430  -0.393        0
   648  G21_120        -3   27    6  -0.430  -0.393        0
   649  G21_121        -3   27    6  -0.430  -0.393        0
   650  G21_122        -3   27    6  -0.430  -0.393        0
   651  G21_123        -3   27    6  -0.430  -0.393        0
   652  G21_124        -3   27    6  -0.430  -0.393        0
   653  G21_125        -3   27    6  -0.430  -0.393        0
   654  G21_126        -3   27    6  -0.430  -0.393        0
   655  G21_127        -3   27    6  -0.430  -0.393        0
   656  G21_128        -3   27    6  -0.430  -0.393        0
   657  G21_129        -3   27    6  -0.430  -0.393        0
   658  G21_130        -3   27    6  -0.430  -0.393        0
   659  G21_131        -3   27    6  -0.430  -0.393        0
   660  G21_132        -3   27    6  -0.430  -0.393        0
1
                            STRESS PERIOD NO.    1, LENGTH =   86400.00    
                            -----------------------------------------------

                              NUMBER OF TIME STEPS =     1

                               MULTIPLIER FOR DELT =     1.000

                            INITIAL TIME STEP SIZE =   86400.00    



                           RECHARGE
 READING ON UNIT   24 WITH FORMAT: (FREE)              

            1           2           3           4           5           6           7           8           9          10
           11          12          13          14          15          16          17          18          19          20
           21          22          23          24          25          26          27          28          29          30
           31          32          33          34          35
 ........................................................................................................................
   1   5.0000E-09  5.0000E-09  5.0000E-09  5.0000E-09  5.0000E-09  5.0000E-09  5.0000E-09  5.0000E-09  5.0000E-09  5.0000E-09
       5.0000E-09  5.0000E-09  5.0000E-09  5.0000E-09  5.0000E-09  5.0000E-09  5.0000E-09  5.0000E-09  5.0000E-09  5.0000E-09
       5.0000E-09  5.0000E-09  5.0000E-09  5.0000E-09  5.0000E-09   0.000       0.000       0.000       0.000       0.000    
        0.000       0.000       0.000       0.000       0.000    
   2   5.0000E-09  5.0000E-09  5.0000E-09  5.0000E-09  5.0000E-09  5.0000E-09  5.0000E-09  5.0000E-09  5.0000E-09  5.0000E-09
       5.0000E-09  5.0000E-09  5.0000E-09  5.0000E-09  5.0000E-09  5.0000E-09  5.0000E-09  5.0000E-09  5.0000E-09  5.0000E-09
       5.0000E-09  5.0000E-09  5.0000E-09  5.0000E-09  5.0000E-09   0.000       0.000       0.000       0.000       0.000    
        0.000       0.000       0.000       0.000       0.000    
   3   5.0000E-09  5.0000E-09  5.0000E-09  5.0000E-09  5.0000E-09  5.0000E-09  5.0000E-09  5.0000E-09  5.0000E-09  5.0000E-09
       5.0000E-09  5.0000E-09  5.0000E-09  5.0000E-09  5.0000E-09  5.0000E-09  5.0000E-09  5.0000E-09  5.0000E-09  5.0000E-09
       5.0000E-09  5.0000E-09  5.0000E-09  5.0000E-09  5.0000E-09   0.000       0.000       0.000       0.000       0.000    
        0.000       0.000       0.000       0.000       0.000    
   4   5.0000E-09  5.0000E-09  5.0000E-09  5.0000E-09  5.0000E-09  5.0000E-09  5.0000E-09  5.0000E-09  5.0000E-09  5.0000E-09
       5.0000E-09  5.0000E-09  5.0000E-09  5.0000E-09  5.0000E-09  5.0000E-09  5.0000E-09  5.0000E-09  5.0000E-09  5.0000E-09
       5.0000E-09  5.0000E-09  5.0000E-09  5.0000E-09  5.0000E-09  5.0000E-09   0.000       0.000       0.000       0.000    
        0.000       0.000       0.000       0.000       0.000    
   5   5.0000E-09  5.0000E-09  5.0000E-09  5.0000E-09  5.0000E-09  5.0000E-09  5.0000E-09  5.0000E-09  5.0000E-09  5.0000E-09
       5.0000E-09  5.0000E-09  5.0000E-09  5.0000E-09  5.0000E-09  5.0000E-09  5.0000E-09  5.0000E-09  5.0000E-09  5.0000E-09
       5.0000E-09  5.0000E-09  5.0000E-09  5.0000E-09  5.0000E-09  5.0000E-09   0.000       0.000       0.000       0.000    
        0.000       0.000       0.000       0.000       0.000    
   6   5.0000E-09  5.0000E-09  5.0000E-09  5.0000E-09  5.0000E-09  5.0000E-09  5.0000E-09  5.0000E-09  5.0000E-09  5.0000E-09
       5.0000E-09  5.0000E-09  5.0000E-09  5.0000E-09  5.0000E-09  5.0000E-09  5.0000E-09  5.0000E-09  5.0000E-09  5.0000E-09
       5.0000E-09  5.0000E-09  5.0000E-09  5.0000E-09  5.0000E-09  5.0000E-09   0.000       0.000       0.000       0.000    
        0.000       0.000       0.000       0.000       0.000    
   7   5.0000E-09  5.0000E-09  5.0000E-09  5.0000E-09  5.0000E-09  5.0000E-09  5.0000E-09  5.0000E-09  5.0000E-09  5.0000E-09
       5.0000E-09  5.0000E-09  5.0000E-09  5.0000E-09  5.0000E-09  5.0000E-09  5.0000E-09  5.0000E-09  5.0000E-09  5.0000E-09
       5.0000E-09  5.0000E-09  5.0000E-09  5.0000E-09  5.0000E-09  5.0000E-09   0.000       0.000       0.000       0.000    
        0.000       0.000       0.000       0.000       0.000    
   8   5.0000E-09  5.0000E-09  5.0000E-09  5.0000E-09  5.0000E-09  5.0000E-09  5.0000E-09  5.0000E-09  5.0000E-09  5.0000E-09
       5.0000E-09  5.0000E-09  5.0000E-09  5.0000E-09  5.0000E-09  5.0000E-09  5.0000E-09  5.0000E-09  5.0000E-09  5.0000E-09
       5.0000E-09  5.0000E-09  5.0000E-09  5.0000E-09  5.0000E-09  5.0000E-09   0.000       0.000       0.000       0.000    
        0.000       0.000       0.000       0.000       0.000    
   9   5.0000E-09  5.0000E-09  5.0000E-09  5.0000E-09  5.0000E-09  5.0000E-09  5.0000E-09  5.0000E-09  5.0000E-09  5.0000E-09
       5.0000E-09  5.0000E-09  5.0000E-09  5.0000E-09  5.0000E-09  5.0000E-09  5.0000E-09  5.0000E-09  5.0000E-09  5.0000E-09
       5.0000E-09   0.000       0.000       0.000       0.000       0.000       0.000       0.000       0.000       0.000    
        0.000       0.000       0.000       0.000       0.000    
  10   5.0000E-09  5.0000E-09  5.0000E-09  5.0000E-09  5.0000E-09  5.0000E-09  5.0000E-09  5.0000E-09  5.0000E-09  5.0000E-09
       5.0000E-09  5.0000E-09  5.0000E-09  5.0000E-09  5.0000E-09  5.0000E-09  5.0000E-09  5.0000E-09  5.0000E-09  5.0000E-09
       5.0000E-09   0.000       0.000       0.000       0.000       0.000       0.000       0.000       0.000       0.000    
        0.000       0.000       0.000       0.000       0.000    
  11   5.0000E-09  5.0000E-09  5.0000E-09  5.0000E-09  5.0000E-09  5.0000E-09  5.0000E-09  5.0000E-09  5.0000E-09  5.0000E-09
       5.0000E-09  5.0000E-09  5.0000E-09  5.0000E-09  5.0000E-09  5.0000E-09  5.0000E-09  5.0000E-09  5.0000E-09  5.0000E-09
       5.0000E-09  5.0000E-09   0.000       0.000       0.000       0.000       0.000       0.000       0.000       0.000    
        0.000       0.000       0.000       0.000       0.000    
  12   5.0000E-09  5.0000E-09  5.0000E-09  5.0000E-09  5.0000E-09  5.0000E-09  5.0000E-09  5.0000E-09  5.0000E-09  5.0000E-09
       5.0000E-09  5.0000E-09  5.0000E-09  5.0000E-09  5.0000E-09  5.0000E-09  5.0000E-09  5.0000E-09  5.0000E-09  5.0000E-09
       5.0000E-09  5.0000E-09  5.0000E-09  5.0000E-09  5.0000E-09  5.0000E-09  5.0000E-09  5.0000E-09  5.0000E-09  5.0000E-09
       5.0000E-09  5.0000E-09  5.0000E-09  5.0000E-09  5.0000E-09
  13   5.0000E-09  5.0000E-09  5.0000E-09  5.0000E-09  5.0000E-09  5.0000E-09  5.0000E-09  5.0000E-09  5.0000E-09  5.0000E-09
       5.0000E-09  5.0000E-09  5.0000E-09  5.0000E-09  5.0000E-09  5.0000E-09  5.0000E-09  5.0000E-09  5.0000E-09  5.0000E-09
       5.0000E-09  5.0000E-09  5.0000E-09  5.0000E-09  5.0000E-09  5.0000E-09  5.0000E-09  5.0000E-09  5.0000E-09  5.0000E-09
       5.0000E-09  5.0000E-09  5.0000E-09  5.0000E-09  5.0000E-09
  14   5.0000E-09  5.0000E-09  5.0000E-09  5.0000E-09  5.0000E-09  5.0000E-09  5.0000E-09  5.0000E-09  5.0000E-09  5.0000E-09
       5.0000E-09  5.0000E-09  5.0000E-09  5.0000E-09  5.0000E-09  5.0000E-09  5.0000E-09  5.0000E-09  5.0000E-09  5.0000E-09
       5.0000E-09  5.0000E-09  5.0000E-09  5.0000E-09  5.0000E-09  5.0000E-09  5.0000E-09  5.0000E-09  5.0000E-09  5.0000E-09
       5.0000E-09  5.0000E-09  5.0000E-09  5.0000E-09  5.0000E-09
  15   5.0000E-09  5.0000E-09  5.0000E-09  5.0000E-09  5.0000E-09  5.0000E-09  5.0000E-09  5.0000E-09  5.0000E-09  5.0000E-09
       5.0000E-09  5.0000E-09  5.0000E-09  5.0000E-09  5.0000E-09  5.0000E-09  5.0000E-09  5.0000E-09  5.0000E-09  5.0000E-09
       5.0000E-09  5.0000E-09  5.0000E-09  5.0000E-09  5.0000E-09  5.0000E-09  5.0000E-09  5.0000E-09  5.0000E-09  5.0000E-09
       5.0000E-09  5.0000E-09  5.0000E-09  5.0000E-09  5.0000E-09
  16   5.0000E-09  5.0000E-09  5.0000E-09  5.0000E-09  5.0000E-09  5.0000E-09  5.0000E-09  5.0000E-09  5.0000E-09  5.0000E-09
       5.0000E-09  5.0000E-09  5.0000E-09  5.0000E-09  5.0000E-09  5.0000E-09  5.0000E-09  5.0000E-09  5.0000E-09  5.0000E-09
       5.0000E-09  5.0000E-09  5.0000E-09  5.0000E-09  5.0000E-09  5.0000E-09  5.0000E-09  5.0000E-09  5.0000E-09  5.0000E-09
       5.0000E-09  5.0000E-09  5.0000E-09  5.0000E-09  5.0000E-09
  17   5.0000E-09  5.0000E-09  5.0000E-09  5.0000E-09  5.0000E-09  5.0000E-09  5.0000E-09  5.0000E-09  5.0000E-09  5.0000E-09
       5.0000E-09  5.0000E-09  5.0000E-09  5.0000E-09  5.0000E-09  5.0000E-09  5.0000E-09  5.0000E-09  5.0000E-09  5.0000E-09
       5.0000E-09  5.0000E-09  5.0000E-09  5.0000E-09  5.0000E-09  5.0000E-09  5.0000E-09  5.0000E-09  5.0000E-09  5.0000E-09
       5.0000E-09  5.0000E-09  5.0000E-09  5.0000E-09  5.0000E-09
  18   5.0000E-09  5.0000E-09  5.0000E-09  5.0000E-09  5.0000E-09  5.0000E-09  5.0000E-09  5.0000E-09  5.0000E-09  5.0000E-09
       5.0000E-09  5.0000E-09  5.0000E-09  5.0000E-09  5.0000E-09  5.0000E-09  5.0000E-09  5.0000E-09  5.0000E-09  5.0000E-09
       5.0000E-09  5.0000E-09  5.0000E-09  5.0000E-09  5.0000E-09  5.0000E-09  5.0000E-09  5.0000E-09  5.0000E-09  5.0000E-09
       5.0000E-09  5.0000E-09  5.0000E-09  5.0000E-09  5.0000E-09
  19   5.0000E-09  5.0000E-09  5.0000E-09  5.0000E-09  5.0000E-09  5.0000E-09  5.0000E-09  5.0000E-09  5.0000E-09  5.0000E-09
       5.0000E-09  5.0000E-09  5.0000E-09  5.0000E-09  5.0000E-09  5.0000E-09  5.0000E-09  5.0000E-09  5.0000E-09  5.0000E-09
       5.0000E-09  5.0000E-09  5.0000E-09  5.0000E-09  5.0000E-09  5.0000E-09  5.0000E-09  5.0000E-09  5.0000E-09  5.0000E-09
       5.0000E-09  5.0000E-09  5.0000E-09  5.0000E-09  5.0000E-09
  20   5.0000E-09  5.0000E-09  5.0000E-09  5.0000E-09  5.0000E-09  5.0000E-09  5.0000E-09  5.0000E-09  5.0000E-09  5.0000E-09
       5.0000E-09  5.0000E-09  5.0000E-09  5.0000E-09  5.0000E-09  5.0000E-09  5.0000E-09  5.0000E-09  5.0000E-09  5.0000E-09
       5.0000E-09  5.0000E-09  5.0000E-09  5.0000E-09  5.0000E-09  5.0000E-09  5.0000E-09  5.0000E-09  5.0000E-09  5.0000E-09
       5.0000E-09  5.0000E-09  5.0000E-09  5.0000E-09  5.0000E-09
  21   5.0000E-09  5.0000E-09  5.0000E-09  5.0000E-09  5.0000E-09  5.0000E-09  5.0000E-09  5.0000E-09  5.0000E-09  5.0000E-09
       5.0000E-09  5.0000E-09  5.0000E-09  5.0000E-09  5.0000E-09  5.0000E-09  5.0000E-09  5.0000E-09  5.0000E-09  5.0000E-09
       5.0000E-09  5.0000E-09  5.0000E-09  5.0000E-09  5.0000E-09  5.0000E-09  5.0000E-09  5.0000E-09  5.0000E-09  5.0000E-09
       5.0000E-09  5.0000E-09  5.0000E-09  5.0000E-09  5.0000E-09
  22   5.0000E-09  5.0000E-09  5.0000E-09  5.0000E-09  5.0000E-09  5.0000E-09  5.0000E-09  5.0000E-09  5.0000E-09  5.0000E-09
       5.0000E-09  5.0000E-09  5.0000E-09  5.0000E-09  5.0000E-09  5.0000E-09  5.0000E-09  5.0000E-09  5.0000E-09  5.0000E-09
       5.0000E-09  5.0000E-09  5.0000E-09  5.0000E-09  5.0000E-09  5.0000E-09  5.0000E-09  5.0000E-09  5.0000E-09  5.0000E-09
       5.0000E-09  5.0000E-09  5.0000E-09  5.0000E-09  5.0000E-09
  23   5.0000E-09  5.0000E-09  5.0000E-09  5.0000E-09  5.0000E-09  5.0000E-09  5.0000E-09  5.0000E-09  5.0000E-09  5.0000E-09
       5.0000E-09  5.0000E-09  5.0000E-09  5.0000E-09  5.0000E-09  5.0000E-09  5.0000E-09  5.0000E-09  5.0000E-09  5.0000E-09
       5.0000E-09  5.0000E-09  5.0000E-09  5.0000E-09  5.0000E-09  5.0000E-09  5.0000E-09  5.0000E-09  5.0000E-09  5.0000E-09
       5.0000E-09  5.0000E-09  5.0000E-09  5.0000E-09  5.0000E-09
  24   5.0000E-09  5.0000E-09  5.0000E-09  5.0000E-09  5.0000E-09  5.0000E-09  5.0000E-09  5.0000E-09  5.0000E-09  5.0000E-09
       5.0000E-09  5.0000E-09  5.0000E-09  5.0000E-09  5.0000E-09  5.0000E-09  5.0000E-09  5.0000E-09  5.0000E-09  5.0000E-09
       5.0000E-09  5.0000E-09  5.0000E-09  5.0000E-09  5.0000E-09  5.0000E-09  5.0000E-09  5.0000E-09  5.0000E-09  5.0000E-09
       5.0000E-09  5.0000E-09  5.0000E-09  5.0000E-09  5.0000E-09
  25   5.0000E-09  5.0000E-09  5.0000E-09  5.0000E-09  5.0000E-09  5.0000E-09  5.0000E-09  5.0000E-09  5.0000E-09  5.0000E-09
       5.0000E-09  5.0000E-09  5.0000E-09  5.0000E-09  5.0000E-09  5.0000E-09  5.0000E-09  5.0000E-09  5.0000E-09  5.0000E-09
       5.0000E-09  5.0000E-09  5.0000E-09  5.0000E-09  5.0000E-09  5.0000E-09  5.0000E-09  5.0000E-09  5.0000E-09  5.0000E-09
       5.0000E-09  5.0000E-09  5.0000E-09  5.0000E-09  5.0000E-09
  26   5.0000E-09  5.0000E-09  5.0000E-09  5.0000E-09  5.0000E-09  5.0000E-09  5.0000E-09  5.0000E-09  5.0000E-09  5.0000E-09
       5.0000E-09  5.0000E-09  5.0000E-09  5.0000E-09  5.0000E-09  5.0000E-09  5.0000E-09  5.0000E-09  5.0000E-09  5.0000E-09
       5.0000E-09  5.0000E-09  5.0000E-09  5.0000E-09  5.0000E-09  5.0000E-09  5.0000E-09  5.0000E-09  5.0000E-09  5.0000E-09
       5.0000E-09  5.0000E-09  5.0000E-09  5.0000E-09  5.0000E-09
  27   5.0000E-09  5.0000E-09  5.0000E-09  5.0000E-09  5.0000E-09  5.0000E-09  5.0000E-09  5.0000E-09  5.0000E-09  5.0000E-09
       5.0000E-09  5.0000E-09  5.0000E-09  5.0000E-09  5.0000E-09  5.0000E-09  5.0000E-09  5.0000E-09  5.0000E-09  5.0000E-09
       5.0000E-09  5.0000E-09  5.0000E-09  5.0000E-09  5.0000E-09  5.0000E-09  5.0000E-09  5.0000E-09  5.0000E-09  5.0000E-09
       5.0000E-09  5.0000E-09  5.0000E-09  5.0000E-09  5.0000E-09
  28   5.0000E-09  5.0000E-09  5.0000E-09  5.0000E-09  5.0000E-09  5.0000E-09  5.0000E-09  5.0000E-09  5.0000E-09  5.0000E-09
       5.0000E-09  5.0000E-09  5.0000E-09  5.0000E-09  5.0000E-09  5.0000E-09  5.0000E-09  5.0000E-09  5.0000E-09  5.0000E-09
       5.0000E-09  5.0000E-09  5.0000E-09  5.0000E-09  5.0000E-09  5.0000E-09  5.0000E-09  5.0000E-09  5.0000E-09  5.0000E-09
       5.0000E-09  5.0000E-09  5.0000E-09  5.0000E-09  5.0000E-09
  29   5.0000E-09  5.0000E-09  5.0000E-09  5.0000E-09  5.0000E-09  5.0000E-09  5.0000E-09  5.0000E-09  5.0000E-09  5.0000E-09
       5.0000E-09  5.0000E-09  5.0000E-09  5.0000E-09  5.0000E-09  5.0000E-09  5.0000E-09  5.0000E-09  5.0000E-09  5.0000E-09
       5.0000E-09  5.0000E-09  5.0000E-09  5.0000E-09  5.0000E-09  5.0000E-09  5.0000E-09  5.0000E-09  5.0000E-09  5.0000E-09
       5.0000E-09  5.0000E-09  5.0000E-09  5.0000E-09  5.0000E-09
  30   5.0000E-09  5.0000E-09  5.0000E-09  5.0000E-09  5.0000E-09  5.0000E-09  5.0000E-09  5.0000E-09  5.0000E-09  5.0000E-09
       5.0000E-09  5.0000E-09  5.0000E-09  5.0000E-09  5.0000E-09  5.0000E-09  5.0000E-09  5.0000E-09  5.0000E-09  5.0000E-09
       5.0000E-09  5.0000E-09  5.0000E-09  5.0000E-09  5.0000E-09  5.0000E-09  5.0000E-09  5.0000E-09  5.0000E-09  5.0000E-09
       5.0000E-09  5.0000E-09  5.0000E-09  5.0000E-09  5.0000E-09
  31   5.0000E-09  5.0000E-09  5.0000E-09  5.0000E-09  5.0000E-09  5.0000E-09  5.0000E-09  5.0000E-09  5.0000E-09  5.0000E-09
       5.0000E-09  5.0000E-09  5.0000E-09  5.0000E-09  5.0000E-09  5.0000E-09  5.0000E-09  5.0000E-09  5.0000E-09  5.0000E-09
       5.0000E-09  5.0000E-09  5.0000E-09  5.0000E-09  5.0000E-09  5.0000E-09  5.0000E-09  5.0000E-09  5.0000E-09  5.0000E-09
       5.0000E-09  5.0000E-09  5.0000E-09  5.0000E-09  5.0000E-09
  32   5.0000E-09  5.0000E-09  5.0000E-09  5.0000E-09  5.0000E-09  5.0000E-09  5.0000E-09  5.0000E-09  5.0000E-09  5.0000E-09
       5.0000E-09  5.0000E-09  5.0000E-09  5.0000E-09  5.0000E-09  5.0000E-09  5.0000E-09  5.0000E-09  5.0000E-09  5.0000E-09
       5.0000E-09  5.0000E-09  5.0000E-09  5.0000E-09  5.0000E-09  5.0000E-09  5.0000E-09  5.0000E-09  5.0000E-09  5.0000E-09
       5.0000E-09  5.0000E-09  5.0000E-09  5.0000E-09  5.0000E-09
  33   5.0000E-09  5.0000E-09  5.0000E-09  5.0000E-09  5.0000E-09  5.0000E-09  5.0000E-09  5.0000E-09  5.0000E-09  5.0000E-09
       5.0000E-09  5.0000E-09  5.0000E-09  5.0000E-09  5.0000E-09  5.0000E-09  5.0000E-09  5.0000E-09  5.0000E-09  5.0000E-09
       5.0000E-09  5.0000E-09  5.0000E-09  5.0000E-09  5.0000E-09  5.0000E-09  5.0000E-09  5.0000E-09  5.0000E-09  5.0000E-09
       5.0000E-09  5.0000E-09  5.0000E-09  5.0000E-09  5.0000E-09
  34   5.0000E-09  5.0000E-09  5.0000E-09  5.0000E-09  5.0000E-09  5.0000E-09  5.0000E-09  5.0000E-09  5.0000E-09  5.0000E-09
       5.0000E-09  5.0000E-09  5.0000E-09  5.0000E-09  5.0000E-09  5.0000E-09  5.0000E-09  5.0000E-09  5.0000E-09  5.0000E-09
       5.0000E-09  5.0000E-09  5.0000E-09  5.0000E-09  5.0000E-09  5.0000E-09  5.0000E-09  5.0000E-09  5.0000E-09  5.0000E-09
       5.0000E-09  5.0000E-09  5.0000E-09  5.0000E-09  5.0000E-09
  35   5.0000E-09  5.0000E-09  5.0000E-09  5.0000E-09  5.0000E-09  5.0000E-09  5.0000E-09  5.0000E-09  5.0000E-09  5.0000E-09
       5.0000E-09  5.0000E-09  5.0000E-09  5.0000E-09  5.0000E-09  5.0000E-09  5.0000E-09  5.0000E-09  5.0000E-09  5.0000E-09
       5.0000E-09  5.0000E-09  5.0000E-09  5.0000E-09  5.0000E-09  5.0000E-09  5.0000E-09  5.0000E-09  5.0000E-09  5.0000E-09
       5.0000E-09  5.0000E-09  5.0000E-09  5.0000E-09  5.0000E-09
  36   5.0000E-09  5.0000E-09  5.0000E-09  5.0000E-09  5.0000E-09  5.0000E-09  5.0000E-09  5.0000E-09  5.0000E-09  5.0000E-09
       5.0000E-09  5.0000E-09  5.0000E-09  5.0000E-09  5.0000E-09  5.0000E-09  5.0000E-09  5.0000E-09  5.0000E-09  5.0000E-09
       5.0000E-09  5.0000E-09  5.0000E-09  5.0000E-09  5.0000E-09  5.0000E-09  5.0000E-09  5.0000E-09  5.0000E-09  5.0000E-09
       5.0000E-09  5.0000E-09  5.0000E-09  5.0000E-09  5.0000E-09
  37   5.0000E-09  5.0000E-09  5.0000E-09  5.0000E-09  5.0000E-09  5.0000E-09  5.0000E-09  5.0000E-09  5.0000E-09  5.0000E-09
       5.0000E-09  5.0000E-09  5.0000E-09  5.0000E-09  5.0000E-09  5.0000E-09  5.0000E-09  5.0000E-09  5.0000E-09  5.0000E-09
       5.0000E-09  5.0000E-09  5.0000E-09  5.0000E-09  5.0000E-09  5.0000E-09  5.0000E-09  5.0000E-09  5.0000E-09  5.0000E-09
       5.0000E-09  5.0000E-09  5.0000E-09  5.0000E-09  5.0000E-09
  38   5.0000E-09  5.0000E-09  5.0000E-09  5.0000E-09  5.0000E-09  5.0000E-09  5.0000E-09  5.0000E-09  5.0000E-09  5.0000E-09
       5.0000E-09  5.0000E-09  5.0000E-09  5.0000E-09  5.0000E-09  5.0000E-09  5.0000E-09  5.0000E-09  5.0000E-09  5.0000E-09
       5.0000E-09  5.0000E-09  5.0000E-09  5.0000E-09  5.0000E-09  5.0000E-09  5.0000E-09  5.0000E-09  5.0000E-09  5.0000E-09
       5.0000E-09  5.0000E-09  5.0000E-09  5.0000E-09  5.0000E-09
  39   5.0000E-09  5.0000E-09  5.0000E-09  5.0000E-09  5.0000E-09  5.0000E-09  5.0000E-09  5.0000E-09  5.0000E-09  5.0000E-09
       5.0000E-09  5.0000E-09  5.0000E-09  5.0000E-09  5.0000E-09  5.0000E-09  5.0000E-09  5.0000E-09  5.0000E-09  5.0000E-09
       5.0000E-09  5.0000E-09  5.0000E-09  5.0000E-09  5.0000E-09  5.0000E-09  5.0000E-09  5.0000E-09  5.0000E-09  5.0000E-09
       5.0000E-09  5.0000E-09  5.0000E-09  5.0000E-09  5.0000E-09
  40   5.0000E-09  5.0000E-09  5.0000E-09  5.0000E-09  5.0000E-09  5.0000E-09  5.0000E-09  5.0000E-09  5.0000E-09  5.0000E-09
       5.0000E-09  5.0000E-09  5.0000E-09  5.0000E-09  5.0000E-09  5.0000E-09  5.0000E-09  5.0000E-09  5.0000E-09  5.0000E-09
       5.0000E-09  5.0000E-09  5.0000E-09  5.0000E-09  5.0000E-09  5.0000E-09  5.0000E-09  5.0000E-09  5.0000E-09  5.0000E-09
       5.0000E-09  5.0000E-09  5.0000E-09  5.0000E-09  5.0000E-09
  41   5.0000E-09  5.0000E-09  5.0000E-09  5.0000E-09  5.0000E-09  5.0000E-09  5.0000E-09  5.0000E-09  5.0000E-09  5.0000E-09
       5.0000E-09  5.0000E-09  5.0000E-09  5.0000E-09  5.0000E-09  5.0000E-09  5.0000E-09  5.0000E-09  5.0000E-09  5.0000E-09
       5.0000E-09  5.0000E-09  5.0000E-09  5.0000E-09  5.0000E-09  5.0000E-09  5.0000E-09  5.0000E-09  5.0000E-09  5.0000E-09
       5.0000E-09  5.0000E-09  5.0000E-09  5.0000E-09  5.0000E-09
  42   5.0000E-09  5.0000E-09  5.0000E-09  5.0000E-09  5.0000E-09  5.0000E-09  5.0000E-09  5.0000E-09  5.0000E-09  5.0000E-09
       5.0000E-09  5.0000E-09  5.0000E-09  5.0000E-09  5.0000E-09  5.0000E-09  5.0000E-09  5.0000E-09  5.0000E-09  5.0000E-09
       5.0000E-09  5.0000E-09  5.0000E-09  5.0000E-09  5.0000E-09  5.0000E-09  5.0000E-09  5.0000E-09  5.0000E-09  5.0000E-09
       5.0000E-09  5.0000E-09  5.0000E-09  5.0000E-09  5.0000E-09
  43   5.0000E-09  5.0000E-09  5.0000E-09  5.0000E-09  5.0000E-09  5.0000E-09  5.0000E-09  5.0000E-09  5.0000E-09  5.0000E-09
       5.0000E-09  5.0000E-09  5.0000E-09  5.0000E-09  5.0000E-09  5.0000E-09  5.0000E-09  5.0000E-09  5.0000E-09  5.0000E-09
       5.0000E-09  5.0000E-09  5.0000E-09  5.0000E-09  5.0000E-09  5.0000E-09  5.0000E-09  5.0000E-09  5.0000E-09  5.0000E-09
       5.0000E-09  5.0000E-09  5.0000E-09  5.0000E-09  5.0000E-09
  44   5.0000E-09  5.0000E-09  5.0000E-09  5.0000E-09  5.0000E-09  5.0000E-09  5.0000E-09  5.0000E-09  5.0000E-09  5.0000E-09
       5.0000E-09  5.0000E-09  5.0000E-09  5.0000E-09  5.0000E-09  5.0000E-09  5.0000E-09  5.0000E-09  5.0000E-09  5.0000E-09
       5.0000E-09  5.0000E-09  5.0000E-09  5.0000E-09  5.0000E-09  5.0000E-09  5.0000E-09  5.0000E-09  5.0000E-09  5.0000E-09
       5.0000E-09  5.0000E-09  5.0000E-09  5.0000E-09  5.0000E-09
  45   5.0000E-09  5.0000E-09  5.0000E-09  5.0000E-09  5.0000E-09  5.0000E-09  5.0000E-09  5.0000E-09  5.0000E-09  5.0000E-09
       5.0000E-09  5.0000E-09  5.0000E-09  5.0000E-09  5.0000E-09  5.0000E-09  5.0000E-09  5.0000E-09  5.0000E-09  5.0000E-09
       5.0000E-09  5.0000E-09  5.0000E-09  5.0000E-09  5.0000E-09  5.0000E-09  5.0000E-09  5.0000E-09  5.0000E-09  5.0000E-09
       5.0000E-09  5.0000E-09  5.0000E-09  5.0000E-09  5.0000E-09

 CHD NO.   LAYER   ROW   COL    START HEAD        END HEAD         IFACE           
 ----------------------------------------------------------------------------------
      1      4      3      1       110.7           110.7           0.000    
      2      5      3      1       110.7           110.7           0.000    
      3      4      3      2       110.7           110.7           0.000    
      4      5      3      2       110.7           110.7           0.000    
      5      4      3      3       110.7           110.7           0.000    
      6      5      3      3       110.7           110.7           0.000    
      7      4      3      4       110.7           110.7           0.000    
      8      5      3      4       110.7           110.7           0.000    
      9      4      3      5       110.7           110.7           0.000    
     10      5      3      5       110.7           110.7           0.000    
     11      4      3      6       110.7           110.7           0.000    
     12      5      3      6       110.7           110.7           0.000    
     13      4      3      7       110.7           110.7           0.000    
     14      5      3      7       110.7           110.7           0.000    
     15      4      3      8       110.7           110.7           0.000    
     16      5      3      8       110.7           110.7           0.000    
     17      4      2      8       110.7           110.7           0.000    
     18      5      2      8       110.7           110.7           0.000    
     19      4      2      9       110.7           110.7           0.000    
     20      5      2      9       110.7           110.7           0.000    
     21      4      2     10       110.7           110.7           0.000    
     22      5      2     10       110.7           110.7           0.000    
     23      4      2     11       110.7           110.7           0.000    
     24      5      2     11       110.7           110.7           0.000    
     25      4      2     12       110.7           110.7           0.000    
     26      5      2     12       110.7           110.7           0.000    
     27      4      2     13       110.7           110.7           0.000    
     28      5      2     13       110.7           110.7           0.000    
     29      4      2     14       110.7           110.7           0.000    
     30      5      2     14       110.7           110.7           0.000    
     31      4      2     15       110.7           110.7           0.000    
     32      5      2     15       110.7           110.7           0.000    
     33      4      2     16       110.7           110.7           0.000    
     34      5      2     16       110.7           110.7           0.000    
     35      4      2     17       110.7           110.7           0.000    
     36      5      2     17       110.7           110.7           0.000    
     37      4      2     18       110.7           110.7           0.000    
     38      5      2     18       110.7           110.7           0.000    
     39      4      2     19       110.7           110.7           0.000    
     40      5      2     19       110.7           110.7           0.000    
     41      4      2     20       110.7           110.7           0.000    
     42      5      2     20       110.7           110.7           0.000    
     43      4      2     21       110.7           110.7           0.000    
     44      5      2     21       110.7           110.7           0.000    
     45      4      2     22       110.7           110.7           0.000    
     46      5      2     22       110.7           110.7           0.000    
     47      4      2     23       110.7           110.7           0.000    
     48      5      2     23       110.7           110.7           0.000    
     49      4      2     24       110.7           110.7           0.000    
     50      5      2     24       110.7           110.7           0.000    
     51      4      2     25       110.7           110.7           0.000    
     52      5      2     25       110.7           110.7           0.000    
     53      4      2     26       110.7           110.7           0.000    
     54      5      2     26       110.7           110.7           0.000    
     55      4      1     26       110.7           110.7           0.000    
     56      5      1     26       110.7           110.7           0.000    
     57      4      1     27       110.7           110.7           0.000    
     58      5      1     27       110.7           110.7           0.000    
     59      4      1     28       110.7           110.7           0.000    
     60      5      1     28       110.7           110.7           0.000    
     61      4      1     29       110.7           110.7           0.000    
     62      5      1     29       110.7           110.7           0.000    
     63      4      1     30       110.7           110.7           0.000    
     64      5      1     30       110.7           110.7           0.000    
     65      4      1     31       110.7           110.7           0.000    
     66      5      1     31       110.7           110.7           0.000    
     67      4      1     32       110.7           110.7           0.000    
     68      5      1     32       110.7           110.7           0.000    
     69      4      1     33       110.7           110.7           0.000    
     70      5      1     33       110.7           110.7           0.000    
     71      4      1     34       110.7           110.7           0.000    
     72      5      1     34       110.7           110.7           0.000    
     73      4      1     35       110.7           110.7           0.000    
     74      5      1     35       110.7           110.7           0.000    
     75      4     36     35       110.7           110.5           0.000    
     76      5     36     35       110.7           110.5           0.000    
     77      4     35     34       110.7           110.5           0.000    
     78      5     35     34       110.7           110.5           0.000    
     79      4     36     34       110.7           110.5           0.000    
     80      5     36     34       110.7           110.5           0.000    
     81      4     36     33       110.7           110.5           0.000    
     82      5     36     33       110.7           110.5           0.000    
     83      4     36     32       110.7           110.5           0.000    
     84      5     36     32       110.7           110.5           0.000    
     85      4     37     32       110.7           110.5           0.000    
     86      5     37     32       110.7           110.5           0.000    
     87      4     37     31       110.7           110.5           0.000    
     88      5     37     31       110.7           110.5           0.000    
     89      4     38     31       110.7           110.5           0.000    
     90      5     38     31       110.7           110.5           0.000    
     91      4     38     30       110.7           110.5           0.000    
     92      5     38     30       110.7           110.5           0.000    
     93      4     39     30       110.7           110.5           0.000    
     94      5     39     30       110.7           110.5           0.000    
     95      4     39     29       110.7           110.5           0.000    
     96      5     39     29       110.7           110.5           0.000    
     97      4     40     29       110.7           110.5           0.000    
     98      5     40     29       110.7           110.5           0.000    
     99      4     40     28       110.7           110.5           0.000    
    100      5     40     28       110.7           110.5           0.000    
    101      4     40     27       110.6           110.5           0.000    
    102      5     40     27       110.6           110.5           0.000    
    103      4     41     27       110.6           110.5           0.000    
    104      5     41     27       110.6           110.5           0.000    
    105      4     41     26       110.6           110.5           0.000    
    106      5     41     26       110.6           110.5           0.000    
    107      4     41     25       110.6           110.5           0.000    
    108      5     41     25       110.6           110.5           0.000    
    109      4     41     24       110.6           110.5           0.000    
    110      5     41     24       110.6           110.5           0.000    
    111      4     41     23       110.6           110.5           0.000    
    112      5     41     23       110.6           110.5           0.000    
    113      4     41     22       110.6           110.5           0.000    
    114      5     41     22       110.6           110.5           0.000    
    115      4     42     22       110.6           110.5           0.000    
    116      5     42     22       110.6           110.5           0.000    
    117      4     42     21       110.6           110.5           0.000    
    118      5     42     21       110.6           110.5           0.000    
    119      4     42     20       110.6           110.5           0.000    
    120      5     42     20       110.6           110.5           0.000    
    121      4     42     19       110.6           110.5           0.000    
    122      5     42     19       110.6           110.5           0.000    
    123      4     43     18       110.6           110.5           0.000    
    124      5     43     18       110.6           110.5           0.000    
    125      4     42     18       110.6           110.5           0.000    
    126      5     42     18       110.6           110.5           0.000    
    127      4     42     17       110.6           110.5           0.000    
    128      5     42     17       110.6           110.5           0.000    
    129      4     42     16       110.6           110.5           0.000    
    130      5     42     16       110.6           110.5           0.000    
    131      4     42     15       110.6           110.5           0.000    
    132      5     42     15       110.6           110.5           0.000    
    133      4     43     15       110.6           110.5           0.000    
    134      5     43     15       110.6           110.5           0.000    
    135      4     43     14       110.6           110.5           0.000    
    136      5     43     14       110.6           110.5           0.000    
    137      4     43     13       110.6           110.5           0.000    
    138      5     43     13       110.6           110.5           0.000    
    139      4     43     12       110.6           110.5           0.000    
    140      5     43     12       110.6           110.5           0.000    
    141      4     43     11       110.6           110.5           0.000    
    142      5     43     11       110.6           110.5           0.000    
    143      4     43     10       110.6           110.5           0.000    
    144      5     43     10       110.6           110.5           0.000    
    145      4     44     10       110.6           110.5           0.000    
    146      5     44     10       110.6           110.5           0.000    
    147      4     44      9       110.6           110.5           0.000    
    148      5     44      9       110.6           110.5           0.000    
    149      4     44      8       110.6           110.5           0.000    
    150      5     44      8       110.6           110.5           0.000    
    151      4     44      7       110.6           110.5           0.000    
    152      5     44      7       110.6           110.5           0.000    
    153      4     44      6       110.6           110.5           0.000    
    154      5     44      6       110.6           110.5           0.000    
    155      4     44      5       110.6           110.5           0.000    
    156      5     44      5       110.6           110.5           0.000    
    157      4     44      4       110.6           110.5           0.000    
    158      5     44      4       110.6           110.5           0.000    
    159      4     44      3       110.6           110.5           0.000    
    160      5     44      3       110.6           110.5           0.000    
    161      4     45      3       110.6           110.5           0.000    
    162      5     45      3       110.6           110.5           0.000    
    163      4     45      2       110.6           110.5           0.000    
    164      5     45      2       110.6           110.5           0.000    
    165      4     45      1       110.6           110.5           0.000    
    166      5     45      1       110.6           110.5           0.000    


    166 TIME-VARIANT SPECIFIED-HEAD CELLS

 SOLVING FOR HEAD 

 CELL CONVERSIONS FOR ITER.=  1  LAYER=  1  STEP=  1  PERIOD=   1   (ROW,COL)
    DRY(  1, 35)   DRY(  2, 17)   DRY(  2, 18)   DRY(  2, 19)   DRY(  2, 20)   
    DRY(  2, 21)   DRY(  2, 22)   DRY(  2, 23)   DRY(  2, 24)   DRY(  2, 25)   
    DRY(  2, 26)   DRY(  2, 27)   DRY(  2, 28)   DRY(  2, 29)   DRY(  2, 30)   
    DRY(  2, 31)   DRY(  2, 32)   DRY(  2, 33)   DRY(  2, 34)   DRY(  2, 35)   
    DRY(  3,  1)   DRY(  3,  2)   DRY(  3,  3)   DRY(  3,  4)   DRY(  3,  5)   
    DRY(  3,  6)   DRY(  3,  7)   DRY(  3,  8)   DRY(  3,  9)   DRY(  3, 10)   
    DRY(  3, 11)   DRY(  3, 12)   DRY(  3, 13)   DRY(  3, 14)   DRY(  3, 15)   
    DRY(  3, 16)   DRY(  3, 17)   DRY(  3, 18)   DRY(  3, 19)   DRY(  3, 20)   
    DRY(  3, 21)   DRY(  3, 22)   DRY(  3, 23)   DRY(  3, 24)   DRY(  3, 25)   
    DRY(  3, 26)   DRY(  3, 27)   DRY(  3, 28)   DRY(  3, 29)   DRY(  3, 30)   
    DRY(  3, 31)   DRY(  3, 32)   DRY(  3, 33)   DRY(  3, 34)   DRY(  3, 35)   
    DRY(  4,  1)   DRY(  4,  2)   DRY(  4,  3)   DRY(  4,  4)   DRY(  4,  5)   
    DRY(  4,  6)   DRY(  4,  7)   DRY(  4,  8)   DRY(  4,  9)   DRY(  4, 10)   
    DRY(  4, 11)   DRY(  4, 12)   DRY(  4, 13)   DRY(  4, 14)   DRY(  4, 15)   
    DRY(  4, 16)   DRY(  4, 17)   DRY(  4, 18)   DRY(  4, 19)   DRY(  4, 20)   
    DRY(  4, 21)   DRY(  4, 22)   DRY(  4, 23)   DRY(  4, 24)   DRY(  4, 25)   
    DRY(  4, 26)   DRY(  4, 27)   DRY(  4, 28)   DRY(  4, 29)   DRY(  4, 30)   
    DRY(  4, 31)   DRY(  4, 32)   DRY(  4, 33)   DRY(  4, 34)   DRY(  4, 35)   
    DRY(  5,  1)   DRY(  5,  2)   DRY(  5,  3)   DRY(  5,  4)   DRY(  5,  5)   
    DRY(  5,  6)   DRY(  5,  7)   DRY(  5,  8)   DRY(  5,  9)   DRY(  5, 10)   
    DRY(  5, 11)   DRY(  5, 12)   DRY(  5, 13)   DRY(  5, 14)   DRY(  5, 15)   
    DRY(  5, 16)   DRY(  5, 17)   DRY(  5, 18)   DRY(  5, 19)   DRY(  5, 20)   
    DRY(  5, 21)   DRY(  5, 22)   DRY(  5, 23)   DRY(  5, 24)   DRY(  5, 25)   
    DRY(  5, 26)   DRY(  5, 27)   DRY(  5, 28)   DRY(  5, 29)   DRY(  5, 30)   
    DRY(  5, 31)   DRY(  5, 32)   DRY(  5, 33)   DRY(  5, 34)   DRY(  5, 35)   
    DRY(  6,  1)   DRY(  6,  2)   DRY(  6,  3)   DRY(  6,  4)   DRY(  6,  5)   
    DRY(  6,  6)   DRY(  6,  7)   DRY(  6,  8)   DRY(  6,  9)   DRY(  6, 10)   
    DRY(  6, 11)   DRY(  6, 12)   DRY(  6, 13)   DRY(  6, 14)   DRY(  6, 15)   
    DRY(  6, 16)   DRY(  6, 17)   DRY(  6, 18)   DRY(  6, 19)   DRY(  6, 20)   
    DRY(  6, 21)   DRY(  6, 22)   DRY(  6, 23)   DRY(  6, 24)   DRY(  6, 25)   
    DRY(  6, 26)   DRY(  6, 27)   DRY(  6, 28)   DRY(  6, 29)   DRY(  6, 30)   
    DRY(  6, 31)   DRY(  6, 32)   DRY(  6, 33)   DRY(  6, 34)   DRY(  6, 35)   
    DRY(  7,  1)   DRY(  7,  2)   DRY(  7,  3)   DRY(  7,  4)   DRY(  7,  5)   
    DRY(  7,  6)   DRY(  7,  7)   DRY(  7,  8)   DRY(  7,  9)   DRY(  7, 10)   
    DRY(  7, 11)   DRY(  7, 12)   DRY(  7, 13)   DRY(  7, 14)   DRY(  7, 15)   
    DRY(  7, 16)   DRY(  7, 17)   DRY(  7, 18)   DRY(  7, 19)   DRY(  7, 20)   
    DRY(  7, 21)   DRY(  7, 22)   DRY(  7, 23)   DRY(  7, 24)   DRY(  7, 25)   
    DRY(  7, 26)   DRY(  7, 27)   DRY(  7, 28)   DRY(  7, 29)   DRY(  7, 30)   
    DRY(  7, 31)   DRY(  7, 32)   DRY(  7, 33)   DRY(  7, 34)   DRY(  7, 35)   
    DRY(  8,  1)   DRY(  8,  2)   DRY(  8,  3)   DRY(  8,  4)   DRY(  8,  5)   
    DRY(  8,  6)   DRY(  8,  7)   DRY(  8,  8)   DRY(  8,  9)   DRY(  8, 10)   
    DRY(  8, 11)   DRY(  8, 12)   DRY(  8, 13)   DRY(  8, 14)   DRY(  8, 15)   
    DRY(  8, 16)   DRY(  8, 17)   DRY(  8, 18)   DRY(  8, 19)   DRY(  8, 20)   
    DRY(  8, 21)   DRY(  8, 22)   DRY(  8, 23)   DRY(  8, 24)   DRY(  8, 25)   
    DRY(  8, 26)   DRY(  8, 27)   DRY(  8, 28)   DRY(  8, 29)   DRY(  8, 30)   
    DRY(  8, 31)   DRY(  8, 32)   DRY(  8, 33)   DRY(  8, 34)   DRY(  8, 35)   
    DRY(  9,  1)   DRY(  9,  2)   DRY(  9,  3)   DRY(  9,  4)   DRY(  9,  5)   
    DRY(  9,  6)   DRY(  9,  7)   DRY(  9,  8)   DRY(  9,  9)   DRY(  9, 10)   
    DRY(  9, 11)   DRY(  9, 12)   DRY(  9, 13)   DRY(  9, 14)   DRY(  9, 15)   
    DRY(  9, 16)   DRY(  9, 17)   DRY(  9, 18)   DRY(  9, 19)   DRY(  9, 20)   
    DRY(  9, 21)   DRY(  9, 22)   DRY(  9, 23)   DRY(  9, 24)   DRY(  9, 25)   
    DRY(  9, 26)   DRY(  9, 27)   DRY(  9, 28)   DRY(  9, 29)   DRY(  9, 30)   
    DRY(  9, 31)   DRY(  9, 32)   DRY(  9, 33)   DRY(  9, 34)   DRY(  9, 35)   
    DRY( 10,  1)   DRY( 10,  2)   DRY( 10,  3)   DRY( 10,  4)   DRY( 10,  5)   
    DRY( 10,  6)   DRY( 10,  7)   DRY( 10,  8)   DRY( 10,  9)   DRY( 10, 10)   
    DRY( 10, 11)   DRY( 10, 12)   DRY( 10, 13)   DRY( 10, 14)   DRY( 10, 15)   
    DRY( 10, 16)   DRY( 10, 17)   DRY( 10, 18)   DRY( 10, 19)   DRY( 10, 20)   
    DRY( 10, 21)   DRY( 10, 22)   DRY( 10, 23)   DRY( 10, 24)   DRY( 10, 25)   
    DRY( 10, 26)   DRY( 10, 27)   DRY( 10, 28)   DRY( 10, 29)   DRY( 10, 30)   
    DRY( 10, 31)   DRY( 10, 32)   DRY( 10, 33)   DRY( 10, 34)   DRY( 10, 35)   
    DRY( 11,  1)   DRY( 11,  2)   DRY( 11,  3)   DRY( 11,  4)   DRY( 11,  5)   
    DRY( 11,  6)   DRY( 11,  7)   DRY( 11,  8)   DRY( 11,  9)   DRY( 11, 10)   
    DRY( 11, 11)   DRY( 11, 12)   DRY( 11, 13)   DRY( 11, 14)   DRY( 11, 15)   
    DRY( 11, 16)   DRY( 11, 17)   DRY( 11, 18)   DRY( 11, 19)   DRY( 11, 20)   
    DRY( 11, 21)   DRY( 11, 22)   DRY( 11, 23)   DRY( 11, 24)   DRY( 11, 25)   
    DRY( 11, 26)   DRY( 11, 27)   DRY( 11, 28)   DRY( 11, 29)   DRY( 11, 30)   
    DRY( 11, 31)   DRY( 11, 32)   DRY( 11, 33)   DRY( 11, 34)   DRY( 11, 35)   
    DRY( 12,  1)   DRY( 12,  2)   DRY( 12,  3)   DRY( 12,  4)   DRY( 12,  5)   
    DRY( 12,  6)   DRY( 12,  7)   DRY( 12,  8)   DRY( 12,  9)   DRY( 12, 10)   
    DRY( 12, 11)   DRY( 12, 12)   DRY( 12, 13)   DRY( 12, 14)   DRY( 12, 15)   
    DRY( 12, 16)   DRY( 12, 17)   DRY( 12, 18)   DRY( 12, 19)   DRY( 12, 20)   
    DRY( 12, 21)   DRY( 12, 22)   DRY( 12, 23)   DRY( 12, 24)   DRY( 12, 25)   
    DRY( 12, 26)   DRY( 12, 27)   DRY( 12, 28)   DRY( 12, 29)   DRY( 12, 30)   
    DRY( 12, 31)   DRY( 12, 32)   DRY( 12, 33)   DRY( 12, 34)   DRY( 12, 35)   
    DRY( 13,  1)   DRY( 13,  2)   DRY( 13,  3)   DRY( 13,  4)   DRY( 13,  5)   
    DRY( 13,  6)   DRY( 13,  7)   DRY( 13,  8)   DRY( 13,  9)   DRY( 13, 10)   
    DRY( 13, 11)   DRY( 13, 12)   DRY( 13, 13)   DRY( 13, 14)   DRY( 13, 15)   
    DRY( 13, 16)   DRY( 13, 17)   DRY( 13, 18)   DRY( 13, 19)   DRY( 13, 20)   
    DRY( 13, 21)   DRY( 13, 22)   DRY( 13, 23)   DRY( 13, 24)   DRY( 13, 25)   
    DRY( 13, 26)   DRY( 13, 27)   DRY( 13, 28)   DRY( 13, 29)   DRY( 13, 30)   
    DRY( 13, 31)   DRY( 13, 32)   DRY( 13, 33)   DRY( 13, 34)   DRY( 13, 35)   
    DRY( 14,  1)   DRY( 14,  2)   DRY( 14,  3)   DRY( 14,  4)   DRY( 14,  5)   
    DRY( 14,  6)   DRY( 14,  7)   DRY( 14,  8)   DRY( 14,  9)   DRY( 14, 10)   
    DRY( 14, 11)   DRY( 14, 12)   DRY( 14, 13)   DRY( 14, 14)   DRY( 14, 15)   
    DRY( 14, 16)   DRY( 14, 17)   DRY( 14, 18)   DRY( 14, 19)   DRY( 14, 20)   
    DRY( 14, 21)   DRY( 14, 22)   DRY( 14, 23)   DRY( 14, 24)   DRY( 14, 25)   
    DRY( 14, 26)   DRY( 14, 27)   DRY( 14, 28)   DRY( 14, 29)   DRY( 14, 30)   
    DRY( 14, 31)   DRY( 14, 32)   DRY( 14, 33)   DRY( 14, 34)   DRY( 14, 35)   
    DRY( 15,  1)   DRY( 15,  2)   DRY( 15,  3)   DRY( 15,  4)   DRY( 15,  5)   
    DRY( 15,  6)   DRY( 15,  7)   DRY( 15,  8)   DRY( 15,  9)   DRY( 15, 10)   
    DRY( 15, 11)   DRY( 15, 12)   DRY( 15, 13)   DRY( 15, 14)   DRY( 15, 15)   
    DRY( 15, 16)   DRY( 15, 17)   DRY( 15, 18)   DRY( 15, 19)   DRY( 15, 20)   
    DRY( 15, 21)   DRY( 15, 22)   DRY( 15, 23)   DRY( 15, 24)   DRY( 15, 25)   
    DRY( 15, 26)   DRY( 15, 27)   DRY( 15, 28)   DRY( 15, 29)   DRY( 15, 30)   
    DRY( 15, 31)   DRY( 15, 32)   DRY( 15, 33)   DRY( 15, 34)   DRY( 15, 35)   
    DRY( 16,  1)   DRY( 16,  2)   DRY( 16,  3)   DRY( 16,  4)   DRY( 16,  5)   
    DRY( 16,  6)   DRY( 16,  7)   DRY( 16,  8)   DRY( 16,  9)   DRY( 16, 10)   
    DRY( 16, 11)   DRY( 16, 12)   DRY( 16, 13)   DRY( 16, 14)   DRY( 16, 15)   
    DRY( 16, 16)   DRY( 16, 17)   DRY( 16, 18)   DRY( 16, 19)   DRY( 16, 20)   
    DRY( 16, 21)   DRY( 16, 22)   DRY( 16, 23)   DRY( 16, 24)   DRY( 16, 25)   
    DRY( 16, 26)   DRY( 16, 27)   DRY( 16, 28)   DRY( 16, 29)   DRY( 16, 30)   
    DRY( 16, 31)   DRY( 16, 32)   DRY( 16, 33)   DRY( 16, 34)   DRY( 16, 35)   
    DRY( 17,  1)   DRY( 17,  2)   DRY( 17,  3)   DRY( 17,  4)   DRY( 17,  5)   
    DRY( 17,  6)   DRY( 17,  7)   DRY( 17,  8)   DRY( 17,  9)   DRY( 17, 10)   
    DRY( 17, 11)   DRY( 17, 12)   DRY( 17, 13)   DRY( 17, 14)   DRY( 17, 15)   
    DRY( 17, 16)   DRY( 17, 17)   DRY( 17, 18)   DRY( 17, 19)   DRY( 17, 20)   
    DRY( 17, 21)   DRY( 17, 22)   DRY( 17, 23)   DRY( 17, 24)   DRY( 17, 25)   
    DRY( 17, 26)   DRY( 17, 27)   DRY( 17, 28)   DRY( 17, 29)   DRY( 17, 30)   
    DRY( 17, 31)   DRY( 17, 32)   DRY( 17, 33)   DRY( 17, 34)   DRY( 17, 35)   
    DRY( 18,  1)   DRY( 18,  2)   DRY( 18,  3)   DRY( 18,  4)   DRY( 18,  5)   
    DRY( 18,  6)   DRY( 18,  7)   DRY( 18,  8)   DRY( 18,  9)   DRY( 18, 10)   
    DRY( 18, 11)   DRY( 18, 12)   DRY( 18, 13)   DRY( 18, 14)   DRY( 18, 15)   
    DRY( 18, 16)   DRY( 18, 17)   DRY( 18, 18)   DRY( 18, 19)   DRY( 18, 20)   
    DRY( 18, 21)   DRY( 18, 22)   DRY( 18, 23)   DRY( 18, 24)   DRY( 18, 25)   
    DRY( 18, 26)   DRY( 18, 27)   DRY( 18, 28)   DRY( 18, 29)   DRY( 18, 30)   
    DRY( 18, 31)   DRY( 18, 32)   DRY( 18, 33)   DRY( 18, 34)   DRY( 18, 35)   
    DRY( 19,  1)   DRY( 19,  2)   DRY( 19,  3)   DRY( 19,  4)   DRY( 19,  5)   
    DRY( 19,  6)   DRY( 19,  7)   DRY( 19,  8)   DRY( 19,  9)   DRY( 19, 10)   
    DRY( 19, 11)   DRY( 19, 12)   DRY( 19, 13)   DRY( 19, 14)   DRY( 19, 15)   
    DRY( 19, 16)   DRY( 19, 17)   DRY( 19, 18)   DRY( 19, 19)   DRY( 19, 20)   
    DRY( 19, 21)   DRY( 19, 22)   DRY( 19, 23)   DRY( 19, 24)   DRY( 19, 25)   
    DRY( 19, 26)   DRY( 19, 27)   DRY( 19, 28)   DRY( 19, 29)   DRY( 19, 30)   
    DRY( 19, 31)   DRY( 19, 32)   DRY( 19, 33)   DRY( 19, 34)   DRY( 19, 35)   
    DRY( 20,  1)   DRY( 20,  2)   DRY( 20,  3)   DRY( 20,  4)   DRY( 20,  5)   
    DRY( 20,  6)   DRY( 20,  7)   DRY( 20,  8)   DRY( 20,  9)   DRY( 20, 10)   
    DRY( 20, 11)   DRY( 20, 12)   DRY( 20, 13)   DRY( 20, 14)   DRY( 20, 15)   
    DRY( 20, 16)   DRY( 20, 17)   DRY( 20, 18)   DRY( 20, 19)   DRY( 20, 20)   
    DRY( 20, 21)   DRY( 20, 22)   DRY( 20, 23)   DRY( 20, 24)   DRY( 20, 25)   
    DRY( 20, 26)   DRY( 20, 27)   DRY( 20, 28)   DRY( 20, 29)   DRY( 20, 30)   
    DRY( 20, 31)   DRY( 20, 32)   DRY( 20, 33)   DRY( 20, 34)   DRY( 20, 35)   
    DRY( 21,  1)   DRY( 21,  2)   DRY( 21,  3)   DRY( 21,  4)   DRY( 21,  5)   
    DRY( 21,  6)   DRY( 21,  7)   DRY( 21,  8)   DRY( 21,  9)   DRY( 21, 10)   
    DRY( 21, 11)   DRY( 21, 12)   DRY( 21, 13)   DRY( 21, 14)   DRY( 21, 15)   
    DRY( 21, 16)   DRY( 21, 17)   DRY( 21, 18)   DRY( 21, 19)   DRY( 21, 20)   
    DRY( 21, 21)   DRY( 21, 22)   DRY( 21, 23)   DRY( 21, 24)   DRY( 21, 25)   
    DRY( 21, 26)   DRY( 21, 27)   DRY( 21, 28)   DRY( 21, 29)   DRY( 21, 30)   
    DRY( 21, 31)   DRY( 21, 32)   DRY( 21, 33)   DRY( 21, 34)   DRY( 21, 35)   
    DRY( 22,  1)   DRY( 22,  2)   DRY( 22,  3)   DRY( 22,  4)   DRY( 22,  5)   
    DRY( 22,  6)   DRY( 22,  7)   DRY( 22,  8)   DRY( 22,  9)   DRY( 22, 10)   
    DRY( 22, 11)   DRY( 22, 12)   DRY( 22, 13)   DRY( 22, 14)   DRY( 22, 15)   
    DRY( 22, 16)   DRY( 22, 17)   DRY( 22, 18)   DRY( 22, 19)   DRY( 22, 20)   
    DRY( 22, 21)   DRY( 22, 22)   DRY( 22, 23)   DRY( 22, 24)   DRY( 22, 25)   
    DRY( 22, 26)   DRY( 22, 27)   DRY( 22, 28)   DRY( 22, 29)   DRY( 22, 30)   
    DRY( 22, 31)   DRY( 22, 32)   DRY( 22, 33)   DRY( 22, 34)   DRY( 22, 35)   
    DRY( 23,  1)   DRY( 23,  2)   DRY( 23,  3)   DRY( 23,  4)   DRY( 23,  5)   
    DRY( 23,  6)   DRY( 23,  7)   DRY( 23,  8)   DRY( 23,  9)   DRY( 23, 10)   
    DRY( 23, 11)   DRY( 23, 12)   DRY( 23, 13)   DRY( 23, 14)   DRY( 23, 15)   
    DRY( 23, 16)   DRY( 23, 17)   DRY( 23, 18)   DRY( 23, 19)   DRY( 23, 20)   
    DRY( 23, 21)   DRY( 23, 22)   DRY( 23, 23)   DRY( 23, 24)   DRY( 23, 25)   
    DRY( 23, 26)   DRY( 23, 27)   DRY( 23, 28)   DRY( 23, 29)   DRY( 23, 30)   
    DRY( 23, 31)   DRY( 23, 32)   DRY( 23, 33)   DRY( 23, 34)   DRY( 23, 35)   
    DRY( 24,  1)   DRY( 24,  2)   DRY( 24,  3)   DRY( 24,  4)   DRY( 24,  5)   
    DRY( 24,  6)   DRY( 24,  7)   DRY( 24,  8)   DRY( 24,  9)   DRY( 24, 10)   
    DRY( 24, 11)   DRY( 24, 12)   DRY( 24, 13)   DRY( 24, 14)   DRY( 24, 15)   
    DRY( 24, 16)   DRY( 24, 17)   DRY( 24, 18)   DRY( 24, 19)   DRY( 24, 20)   
    DRY( 24, 21)   DRY( 24, 22)   DRY( 24, 23)   DRY( 24, 24)   DRY( 24, 25)   
    DRY( 24, 26)   DRY( 24, 27)   DRY( 24, 28)   DRY( 24, 29)   DRY( 24, 30)   
    DRY( 24, 31)   DRY( 24, 32)   DRY( 24, 33)   DRY( 24, 34)   DRY( 24, 35)   
    DRY( 25,  1)   DRY( 25,  2)   DRY( 25,  3)   DRY( 25,  4)   DRY( 25,  5)   
    DRY( 25,  6)   DRY( 25,  7)   DRY( 25,  8)   DRY( 25,  9)   DRY( 25, 10)   
    DRY( 25, 11)   DRY( 25, 12)   DRY( 25, 13)   DRY( 25, 14)   DRY( 25, 15)   
    DRY( 25, 16)   DRY( 25, 17)   DRY( 25, 18)   DRY( 25, 19)   DRY( 25, 20)   
    DRY( 25, 21)   DRY( 25, 22)   DRY( 25, 23)   DRY( 25, 24)   DRY( 25, 25)   
    DRY( 25, 26)   DRY( 25, 27)   DRY( 25, 28)   DRY( 25, 29)   DRY( 25, 30)   
    DRY( 25, 31)   DRY( 25, 32)   DRY( 25, 33)   DRY( 25, 34)   DRY( 25, 35)   
    DRY( 26,  1)   DRY( 26,  2)   DRY( 26,  3)   DRY( 26,  4)   DRY( 26,  5)   
    DRY( 26,  6)   DRY( 26,  7)   DRY( 26,  8)   DRY( 26,  9)   DRY( 26, 10)   
    DRY( 26, 11)   DRY( 26, 12)   DRY( 26, 13)   DRY( 26, 14)   DRY( 26, 15)   
    DRY( 26, 16)   DRY( 26, 17)   DRY( 26, 18)   DRY( 26, 19)   DRY( 26, 20)   
    DRY( 26, 21)   DRY( 26, 22)   DRY( 26, 23)   DRY( 26, 24)   DRY( 26, 25)   
    DRY( 26, 26)   DRY( 26, 27)   DRY( 26, 28)   DRY( 26, 29)   DRY( 26, 30)   
    DRY( 26, 31)   DRY( 26, 32)   DRY( 26, 33)   DRY( 26, 34)   DRY( 26, 35)   
    DRY( 27,  1)   DRY( 27,  2)   DRY( 27,  3)   DRY( 27,  4)   DRY( 27,  5)   
    DRY( 27,  6)   DRY( 27,  7)   DRY( 27,  8)   DRY( 27,  9)   DRY( 27, 10)   
    DRY( 27, 11)   DRY( 27, 12)   DRY( 27, 13)   DRY( 27, 14)   DRY( 27, 15)   
    DRY( 27, 16)   DRY( 27, 17)   DRY( 27, 18)   DRY( 27, 19)   DRY( 27, 20)   
    DRY( 27, 21)   DRY( 27, 22)   DRY( 27, 23)   DRY( 27, 24)   DRY( 27, 25)   
    DRY( 27, 26)   DRY( 27, 27)   DRY( 27, 28)   DRY( 27, 29)   DRY( 27, 30)   
    DRY( 27, 31)   DRY( 27, 32)   DRY( 27, 33)   DRY( 27, 34)   DRY( 27, 35)   
    DRY( 28,  1)   DRY( 28,  2)   DRY( 28,  3)   DRY( 28,  4)   DRY( 28,  5)   
    DRY( 28,  6)   DRY( 28,  7)   DRY( 28,  8)   DRY( 28,  9)   DRY( 28, 10)   
    DRY( 28, 11)   DRY( 28, 12)   DRY( 28, 13)   DRY( 28, 14)   DRY( 28, 15)   
    DRY( 28, 16)   DRY( 28, 17)   DRY( 28, 18)   DRY( 28, 19)   DRY( 28, 20)   
    DRY( 28, 21)   DRY( 28, 22)   DRY( 28, 23)   DRY( 28, 24)   DRY( 28, 25)   
    DRY( 28, 26)   DRY( 28, 27)   DRY( 28, 28)   DRY( 28, 29)   DRY( 28, 30)   
    DRY( 28, 31)   DRY( 28, 32)   DRY( 28, 33)   DRY( 28, 34)   DRY( 28, 35)   
    DRY( 29,  1)   DRY( 29,  2)   DRY( 29,  3)   DRY( 29,  4)   DRY( 29,  5)   
    DRY( 29,  6)   DRY( 29,  7)   DRY( 29,  8)   DRY( 29,  9)   DRY( 29, 10)   
    DRY( 29, 11)   DRY( 29, 12)   DRY( 29, 13)   DRY( 29, 14)   DRY( 29, 15)   
    DRY( 29, 16)   DRY( 29, 17)   DRY( 29, 18)   DRY( 29, 19)   DRY( 29, 20)   
    DRY( 29, 21)   DRY( 29, 22)   DRY( 29, 23)   DRY( 29, 24)   DRY( 29, 25)   
    DRY( 29, 26)   DRY( 29, 27)   DRY( 29, 28)   DRY( 29, 29)   DRY( 29, 30)   
    DRY( 29, 31)   DRY( 29, 32)   DRY( 29, 33)   DRY( 29, 34)   DRY( 29, 35)   
    DRY( 30,  1)   DRY( 30,  2)   DRY( 30,  3)   DRY( 30,  4)   DRY( 30,  5)   
    DRY( 30,  6)   DRY( 30,  7)   DRY( 30,  8)   DRY( 30,  9)   DRY( 30, 10)   
    DRY( 30, 11)   DRY( 30, 12)   DRY( 30, 13)   DRY( 30, 14)   DRY( 30, 15)   
    DRY( 30, 16)   DRY( 30, 17)   DRY( 30, 18)   DRY( 30, 19)   DRY( 30, 20)   
    DRY( 30, 21)   DRY( 30, 22)   DRY( 30, 23)   DRY( 30, 24)   DRY( 30, 25)   
    DRY( 30, 26)   DRY( 30, 27)   DRY( 30, 28)   DRY( 30, 29)   DRY( 30, 30)   
    DRY( 30, 31)   DRY( 30, 32)   DRY( 30, 33)   DRY( 30, 34)   DRY( 30, 35)   
    DRY( 31,  1)   DRY( 31,  2)   DRY( 31,  3)   DRY( 31,  4)   DRY( 31,  5)   
    DRY( 31,  6)   DRY( 31,  7)   DRY( 31,  8)   DRY( 31,  9)   DRY( 31, 10)   
    DRY( 31, 11)   DRY( 31, 12)   DRY( 31, 13)   DRY( 31, 14)   DRY( 31, 15)   
    DRY( 31, 16)   DRY( 31, 17)   DRY( 31, 18)   DRY( 31, 19)   DRY( 31, 20)   
    DRY( 31, 21)   DRY( 31, 22)   DRY( 31, 23)   DRY( 31, 24)   DRY( 31, 25)   
    DRY( 31, 26)   DRY( 31, 27)   DRY( 31, 28)   DRY( 31, 29)   DRY( 31, 30)   
    DRY( 31, 31)   DRY( 31, 32)   DRY( 31, 33)   DRY( 31, 34)   DRY( 31, 35)   
    DRY( 32,  1)   DRY( 32,  2)   DRY( 32,  3)   DRY( 32,  4)   DRY( 32,  5)   
    DRY( 32,  6)   DRY( 32,  7)   DRY( 32,  8)   DRY( 32,  9)   DRY( 32, 10)   
    DRY( 32, 11)   DRY( 32, 12)   DRY( 32, 13)   DRY( 32, 14)   DRY( 32, 15)   
    DRY( 32, 16)   DRY( 32, 17)   DRY( 32, 18)   DRY( 32, 19)   DRY( 32, 20)   
    DRY( 32, 21)   DRY( 32, 22)   DRY( 32, 23)   DRY( 32, 24)   DRY( 32, 25)   
    DRY( 32, 26)   DRY( 32, 27)   DRY( 32, 28)   DRY( 32, 29)   DRY( 32, 30)   
    DRY( 32, 31)   DRY( 32, 32)   DRY( 32, 33)   DRY( 32, 34)   DRY( 32, 35)   
    DRY( 33,  1)   DRY( 33,  2)   DRY( 33,  3)   DRY( 33,  4)   DRY( 33,  5)   
    DRY( 33,  6)   DRY( 33,  7)   DRY( 33,  8)   DRY( 33,  9)   DRY( 33, 10)   
    DRY( 33, 11)   DRY( 33, 12)   DRY( 33, 13)   DRY( 33, 14)   DRY( 33, 15)   
    DRY( 33, 16)   DRY( 33, 17)   DRY( 33, 18)   DRY( 33, 19)   DRY( 33, 20)   
    DRY( 33, 21)   DRY( 33, 22)   DRY( 33, 23)   DRY( 33, 24)   DRY( 33, 25)   
    DRY( 33, 26)   DRY( 33, 27)   DRY( 33, 28)   DRY( 33, 29)   DRY( 33, 30)   
    DRY( 33, 31)   DRY( 33, 32)   DRY( 33, 33)   DRY( 33, 34)   DRY( 33, 35)   
    DRY( 34,  1)   DRY( 34,  2)   DRY( 34,  3)   DRY( 34,  4)   DRY( 34,  5)   
    DRY( 34,  6)   DRY( 34,  7)   DRY( 34,  8)   DRY( 34,  9)   DRY( 34, 10)   
    DRY( 34, 11)   DRY( 34, 12)   DRY( 34, 13)   DRY( 34, 14)   DRY( 34, 15)   
    DRY( 34, 16)   DRY( 34, 17)   DRY( 34, 18)   DRY( 34, 19)   DRY( 34, 20)   
    DRY( 34, 21)   DRY( 34, 22)   DRY( 34, 23)   DRY( 34, 24)   DRY( 34, 25)   
    DRY( 34, 26)   DRY( 34, 27)   DRY( 34, 28)   DRY( 34, 29)   DRY( 34, 30)   
    DRY( 34, 31)   DRY( 34, 32)   DRY( 34, 33)   DRY( 34, 34)   DRY( 34, 35)   
    DRY( 35,  1)   DRY( 35,  2)   DRY( 35,  3)   DRY( 35,  4)   DRY( 35,  5)   
    DRY( 35,  6)   DRY( 35,  7)   DRY( 35,  8)   DRY( 35,  9)   DRY( 35, 10)   
    DRY( 35, 11)   DRY( 35, 12)   DRY( 35, 13)   DRY( 35, 14)   DRY( 35, 15)   
    DRY( 35, 16)   DRY( 35, 17)   DRY( 35, 18)   DRY( 35, 19)   DRY( 35, 20)   
    DRY( 35, 21)   DRY( 35, 22)   DRY( 35, 23)   DRY( 35, 24)   DRY( 35, 25)   
    DRY( 35, 26)   DRY( 35, 27)   DRY( 35, 28)   DRY( 35, 29)   DRY( 35, 30)   
    DRY( 35, 31)   DRY( 35, 32)   DRY( 35, 33)   DRY( 35, 34)   DRY( 35, 35)   
    DRY( 36,  1)   DRY( 36,  2)   DRY( 36,  3)   DRY( 36,  4)   DRY( 36,  5)   
    DRY( 36,  6)   DRY( 36,  7)   DRY( 36,  8)   DRY( 36,  9)   DRY( 36, 10)   
    DRY( 36, 11)   DRY( 36, 12)   DRY( 36, 13)   DRY( 36, 14)   DRY( 36, 15)   
    DRY( 36, 16)   DRY( 36, 17)   DRY( 36, 18)   DRY( 36, 19)   DRY( 36, 20)   
    DRY( 36, 21)   DRY( 36, 22)   DRY( 36, 23)   DRY( 36, 24)   DRY( 36, 25)   
    DRY( 36, 26)   DRY( 36, 27)   DRY( 36, 28)   DRY( 36, 29)   DRY( 36, 30)   
    DRY( 36, 31)   DRY( 36, 32)   DRY( 36, 35)   DRY( 37,  1)   DRY( 37,  2)   
    DRY( 37,  3)   DRY( 37,  4)   DRY( 37,  5)   DRY( 37,  6)   DRY( 37,  7)   
    DRY( 37,  8)   DRY( 37,  9)   DRY( 37, 10)   DRY( 37, 11)   DRY( 37, 12)   
    DRY( 37, 13)   DRY( 37, 14)   DRY( 37, 15)   DRY( 37, 16)   DRY( 37, 17)   
    DRY( 37, 18)   DRY( 37, 19)   DRY( 37, 20)   DRY( 37, 21)   DRY( 37, 22)   
    DRY( 37, 23)   DRY( 37, 24)   DRY( 37, 25)   DRY( 37, 26)   DRY( 37, 27)   
    DRY( 37, 28)   DRY( 37, 29)   DRY( 37, 30)   DRY( 38,  1)   DRY( 38,  2)   
    DRY( 38,  3)   DRY( 38,  4)   DRY( 38,  5)   DRY( 38,  6)   DRY( 38,  7)   
    DRY( 38,  8)   DRY( 38,  9)   DRY( 38, 10)   DRY( 38, 11)   DRY( 38, 12)   
    DRY( 38, 13)   DRY( 38, 14)   DRY( 38, 15)   DRY( 38, 16)   DRY( 38, 17)   
    DRY( 38, 18)   DRY( 38, 19)   DRY( 38, 20)   DRY( 38, 21)   DRY( 38, 22)   
    DRY( 38, 23)   DRY( 38, 24)   DRY( 38, 25)   DRY( 38, 26)   DRY( 38, 27)   
    DRY( 38, 28)   DRY( 38, 29)   DRY( 38, 30)   DRY( 39,  1)   DRY( 39,  2)   
    DRY( 39,  3)   DRY( 39,  4)   DRY( 39,  5)   DRY( 39,  6)   DRY( 39,  7)   
    DRY( 39,  8)   DRY( 39,  9)   DRY( 39, 10)   DRY( 39, 11)   DRY( 39, 12)   
    DRY( 39, 13)   DRY( 39, 14)   DRY( 39, 15)   DRY( 39, 16)   DRY( 39, 17)   
    DRY( 39, 18)   DRY( 39, 19)   DRY( 39, 20)   DRY( 39, 21)   DRY( 39, 22)   
    DRY( 39, 23)   DRY( 39, 24)   DRY( 39, 25)   DRY( 39, 26)   DRY( 39, 27)   
    DRY( 39, 28)   DRY( 39, 29)   DRY( 40,  1)   DRY( 40,  2)   DRY( 40,  3)   
    DRY( 40,  4)   DRY( 40,  5)   DRY( 40,  6)   DRY( 40,  7)   DRY( 40,  8)   
    DRY( 40,  9)   DRY( 40, 10)   DRY( 40, 11)   DRY( 40, 12)   DRY( 40, 13)   
    DRY( 40, 14)   DRY( 40, 15)   DRY( 40, 16)   DRY( 40, 17)   DRY( 40, 18)   
    DRY( 40, 19)   DRY( 40, 20)   DRY( 40, 21)   DRY( 40, 22)   DRY( 40, 23)   
    DRY( 40, 24)   DRY( 40, 25)   DRY( 40, 26)   DRY( 40, 27)   DRY( 41,  1)   
    DRY( 41,  2)   DRY( 41,  3)   DRY( 41,  4)   DRY( 41,  5)   DRY( 41,  6)   
    DRY( 41,  7)   DRY( 41,  8)   DRY( 41,  9)   DRY( 41, 10)   DRY( 41, 11)   
    DRY( 41, 12)   DRY( 41, 13)   DRY( 41, 14)   DRY( 41, 15)   DRY( 41, 16)   
    DRY( 41, 17)   DRY( 41, 18)   DRY( 41, 19)   DRY( 41, 20)   DRY( 41, 21)   
    DRY( 41, 22)   DRY( 41, 23)   DRY( 42,  1)   DRY( 42,  2)   DRY( 42,  3)   
    DRY( 42,  4)   DRY( 42,  5)   DRY( 42,  6)   DRY( 42,  7)   DRY( 42,  8)   
    DRY( 42,  9)   DRY( 42, 10)   DRY( 42, 11)   DRY( 42, 12)   DRY( 42, 13)   
    DRY( 42, 14)   DRY( 42, 15)   DRY( 42, 16)   DRY( 42, 17)   DRY( 42, 18)   
    DRY( 42, 20)   DRY( 42, 21)   DRY( 43,  1)   DRY( 43,  2)   DRY( 43,  3)   
    DRY( 43,  4)   DRY( 43,  5)   DRY( 43,  6)   DRY( 43,  7)   DRY( 43,  8)   
    DRY( 43,  9)   DRY( 43, 10)   DRY( 43, 11)   DRY( 43, 12)   DRY( 44,  1)   
    DRY( 44,  2)   DRY( 44,  3)   DRY( 44,  4)   DRY( 44,  5)   DRY( 45,  1)   


     4 CALLS TO PCG ROUTINE FOR TIME STEP   1 IN STRESS PERIOD    1
    91 TOTAL ITERATIONS

 MAXIMUM HEAD CHANGE FOR EACH ITERATION (1 INDICATES THE FIRST INNER ITERATION):

    HEAD CHANGE    HEAD CHANGE    HEAD CHANGE    HEAD CHANGE    HEAD CHANGE 
   LAYER,ROW,COL  LAYER,ROW,COL  LAYER,ROW,COL  LAYER,ROW,COL  LAYER,ROW,COL
 ---------------------------------------------------------------------------
  1 -0.6998      0  0.3760      0  0.2634      0 -0.2269      0  0.1927    
   (  5, 43,  5)  (  5, 34,  1)  (  5, 39,  2)  (  5, 33,  2)  (  5, 29,  4)
  0 -0.2100      0  0.1512      0  0.1238      0 -0.1168      0 -0.1141    
   (  5, 37,  1)  (  5, 42,  6)  (  5, 43,  6)  (  5, 40,  1)  (  5, 41,  5)
  0  0.1310      0 -0.5906E-01  0 -0.6540E-01  0  0.2906E-01  0 -0.3939E-01
   (  5, 38,  1)  (  5, 35,  1)  (  5, 37,  1)  (  5, 27,  5)  (  5, 26, 13)
  0  0.3686E-01  0 -0.3654E-01  0  0.1817E-01  0  0.3475E-01  0  0.1711E-01
   (  5, 29, 12)  (  5, 35,  9)  (  5, 32,  4)  (  5, 32, 10)  (  5, 34,  4)
  0 -0.1944E-01  0  0.1895E-01  0  0.1222E-01  0 -0.9342E-02  0  0.1046E-01
   (  5, 33,  1)  (  5, 35,  4)  (  5, 39,  2)  (  5, 25,  2)  (  5, 33, 13)
  0 -0.9388E-02  0  0.8566E-02  0 -0.8113E-02  0  0.5991E-02  0 -0.2631E-02
   (  5, 37,  1)  (  5, 34,  1)  (  5, 36,  4)  (  5, 33,  4)  (  5, 30,  1)
  1  0.2254E-02  0 -0.3447E-02  0 -0.3106E-02  0  0.2183E-02  0 -0.3217E-02
   (  5, 29,  2)  (  5, 32,  1)  (  5, 31,  4)  (  5, 27,  5)  (  5, 38,  4)
  0  0.3361E-02  0 -0.1721E-02  0  0.1244E-02  0 -0.1651E-02  0  0.1705E-02
   (  5, 37,  1)  (  5, 32,  1)  (  5, 17,  4)  (  5, 37,  1)  (  5, 39,  1)
  0 -0.1279E-02  0  0.1105E-02  0 -0.1158E-02  0  0.4744E-03  0 -0.6537E-03
   (  5, 36,  1)  (  5, 33, 13)  (  5, 31, 10)  (  5, 30,  6)  (  5, 26, 11)
  0  0.4919E-03  0 -0.5941E-03  0 -0.4353E-03  0  0.5211E-03  0 -0.5602E-03
   (  5, 24,  6)  (  5, 35,  7)  (  5, 40,  3)  (  5, 31, 10)  (  5, 34, 11)
  0  0.2878E-03  0 -0.1898E-03  0 -0.2255E-03  0 -0.1384E-03  0  0.1025E-03
   (  5, 34,  3)  (  5, 35,  1)  (  5, 29,  9)  (  5, 30,  6)  (  5, 24,  4)
  0 -0.1322E-03  0  0.1487E-03  0 -0.7215E-04  0 -0.9548E-04  0  0.1205E-03
   (  5, 34,  3)  (  5, 36,  2)  (  5, 31,  5)  (  5, 40,  2)  (  5, 43,  6)
  1 -0.5369E-04  0  0.4171E-04  0 -0.2857E-04  0  0.3839E-04  0 -0.4218E-04
   (  5, 40,  2)  (  5, 39,  2)  (  5, 24,  4)  (  5, 31,  5)  (  5, 30,  3)
  0  0.3530E-04  0 -0.2789E-04  0 -0.3049E-04  0  0.1977E-04  0  0.3055E-04
   (  5, 34,  1)  (  5, 29, 11)  (  5, 35,  3)  (  5, 32,  3)  (  5, 13,  1)
  0  0.1913E-04  0 -0.1814E-04  0 -0.1485E-04  0  0.7878E-05  0  0.1333E-04
   (  5, 32,  9)  (  5, 36,  2)  (  5, 36,  7)  (  5, 28,  6)  (  5, 34,  6)
  0 -0.9998E-05  0 -0.7385E-05  0  0.5812E-05  0 -0.4856E-05  0 -0.3362E-05
   (  5, 34, 11)  (  5, 36,  7)  (  5, 29,  1)  (  5, 38,  2)  (  5, 12,  1)
  0  0.3588E-05  0  0.2468E-05  0 -0.1652E-05  0  0.2064E-05  0  0.2298E-05
   (  5, 33,  4)  (  5, 33,  4)  (  5, 25,  1)  (  5, 30,  8)  (  5, 34,  1)
  0 -0.2036E-05  0  0.1691E-05  0 -0.2106E-05  0 -0.1325E-05  0  0.6523E-06
   (  5, 36,  1)  (  5, 39,  1)  (  5, 36,  1)  (  5, 41,  2)  (  5, 30,  1)
  1 -0.5872E-06
   (  5, 32,  2)

 MAXIMUM RESIDUAL FOR EACH ITERATION (1 INDICATES THE FIRST INNER ITERATION):

    RESIDUAL       RESIDUAL       RESIDUAL       RESIDUAL       RESIDUAL    
   LAYER,ROW,COL  LAYER,ROW,COL  LAYER,ROW,COL  LAYER,ROW,COL  LAYER,ROW,COL
 ---------------------------------------------------------------------------
  1  0.4880E-02  0  0.3928E-02  0  0.3173E-02  0  0.2704E-02  0  0.2371E-02
   (  4, 44,  2)  (  4, 44,  2)  (  4, 44,  2)  (  4, 44,  2)  (  4, 44,  2)
  0  0.2082E-02  0  0.1762E-02  0  0.1565E-02  0  0.1316E-02  0  0.1096E-02
   (  4, 35, 35)  (  3, 41, 22)  (  3, 41, 22)  (  3, 40, 27)  (  3, 40, 27)
  0  0.8963E-03  0  0.7319E-03  0 -0.5864E-03  0 -0.5713E-03  0 -0.5120E-03
   (  3, 40, 27)  (  3, 40, 27)  (  4, 43,  4)  (  4, 43,  4)  (  4, 43,  4)
  0 -0.4381E-03  0 -0.3711E-03  0 -0.3505E-03  0 -0.2866E-03  0 -0.2675E-03
   (  4, 43,  4)  (  4, 43,  4)  (  4, 43,  4)  (  4, 43,  4)  (  4, 43,  4)
  0 -0.2230E-03  0 -0.1760E-03  0 -0.1452E-03  0 -0.1387E-03  0 -0.1172E-03
   (  4, 43,  4)  (  4, 43,  4)  (  4, 44,  2)  (  4, 44,  2)  (  4, 44,  2)
  0 -0.9793E-04  0 -0.8700E-04  0 -0.7604E-04  0 -0.6267E-04  0 -0.6041E-04
   (  4, 44,  2)  (  4, 44,  2)  (  4, 34, 35)  (  4, 34, 35)  (  4, 34, 35)
  1 -0.6014E-04  0 -0.5876E-04  0 -0.5428E-04  0 -0.5223E-04  0 -0.4906E-04
   (  4, 34, 35)  (  4, 34, 35)  (  4, 34, 35)  (  4, 34, 35)  (  4, 34, 35)
  0 -0.4387E-04  0 -0.3936E-04  0 -0.3536E-04  0 -0.3002E-04  0 -0.2538E-04
   (  4, 34, 35)  (  4, 34, 35)  (  4, 34, 35)  (  4, 34, 35)  (  4, 34, 35)
  0 -0.2103E-04  0 -0.1693E-04  0 -0.1411E-04  0 -0.1352E-04  0 -0.1142E-04
   (  4, 34, 35)  (  4, 34, 35)  (  4, 34, 35)  (  4, 34, 35)  (  4, 34, 35)
  0  0.1066E-04  0  0.9171E-05  0  0.7744E-05  0  0.6523E-05  0  0.5077E-05
   (  4, 35, 35)  (  4, 35, 35)  (  4, 35, 35)  (  4, 35, 35)  (  4, 35, 35)
  0  0.4201E-05  0  0.3882E-05  0  0.3161E-05  0  0.2816E-05  0  0.2654E-05
   (  4, 35, 35)  (  4, 35, 35)  (  4, 35, 35)  (  4, 35, 35)  (  4, 35, 35)
  0  0.2259E-05  0  0.1914E-05  0  0.1777E-05  0  0.1338E-05  0  0.9213E-06
   (  4, 35, 35)  (  4, 35, 35)  (  4, 35, 35)  (  4, 35, 35)  (  4, 35, 35)
  1  0.8993E-06  0  0.8571E-06  0  0.8439E-06  0  0.8017E-06  0  0.7533E-06
   (  4, 35, 35)  (  4, 35, 35)  (  4, 35, 35)  (  4, 35, 35)  (  4, 35, 35)
  0  0.6917E-06  0  0.5942E-06  0  0.5367E-06  0  0.4623E-06  0  0.3714E-06
   (  4, 35, 35)  (  4, 35, 35)  (  4, 35, 35)  (  4, 35, 35)  (  4, 35, 35)
  0  0.3021E-06  0  0.2652E-06  0  0.2179E-06  0  0.2076E-06  0  0.1700E-06
   (  4, 35, 35)  (  4, 35, 35)  (  4, 35, 35)  (  4, 35, 35)  (  4, 35, 35)
  0  0.1324E-06  0  0.1150E-06  0  0.1034E-06  0  0.8401E-07  0  0.6717E-07
   (  4, 35, 35)  (  4, 35, 35)  (  4, 35, 35)  (  4, 35, 35)  (  4, 35, 35)
  0  0.5068E-07  0  0.4103E-07  0  0.3859E-07  0 -0.3552E-07  0 -0.3104E-07
   (  4, 35, 35)  (  4, 35, 35)  (  4, 35, 35)  (  4, 34, 35)  (  4, 34, 35)
  0 -0.2488E-07  0 -0.2328E-07  0 -0.2080E-07  0 -0.1783E-07  0 -0.1707E-07
   (  4, 44,  2)  (  4, 44,  2)  (  4, 44,  2)  (  4, 44,  2)  (  4, 44,  2)
  1 -0.1693E-07
   (  4, 44,  2)



 OUTPUT CONTROL FOR STRESS PERIOD    1   TIME STEP    1
    SAVE HEAD FOR ALL LAYERS
    SAVE DRAWDOWN FOR ALL LAYERS
    SAVE BUDGET
    PRINT BUDGET
 UBDSV2 SAVING "   CONSTANT HEAD" ON UNIT   9 AT TIME STEP  1, STRESS PERIOD   1
 UBDSV1 SAVING "FLOW RIGHT FACE " ON UNIT   9 AT TIME STEP  1, STRESS PERIOD   1
 UBDSV1 SAVING "FLOW FRONT FACE " ON UNIT   9 AT TIME STEP  1, STRESS PERIOD   1
 UBDSV1 SAVING "FLOW LOWER FACE " ON UNIT   9 AT TIME STEP  1, STRESS PERIOD   1
 UBDSV3 SAVING "        RECHARGE" ON UNIT   9 AT TIME STEP  1, STRESS PERIOD   1

 HEAD WILL BE SAVED ON UNIT   37 AT END OF TIME STEP    1, STRESS PERIOD    1

 DRAWDOWN WILL BE SAVED ON UNIT   38 AT END OF TIME STEP    1, STRESS PERIOD    1
1
  VOLUMETRIC BUDGET FOR ENTIRE MODEL AT END OF TIME STEP    1, STRESS PERIOD   1
  ------------------------------------------------------------------------------

     CUMULATIVE VOLUMES      L**3       RATES FOR THIS TIME STEP      L**3/T
     ------------------                 ------------------------

           IN:                                      IN:
           ---                                      ---
             STORAGE =           0.0000               STORAGE =           0.0000
       CONSTANT HEAD =         166.1169         CONSTANT HEAD =       1.9226E-03
            RECHARGE =           8.8239              RECHARGE =       1.0213E-04

            TOTAL IN =         174.9409              TOTAL IN =       2.0248E-03

          OUT:                                     OUT:
          ----                                     ----
             STORAGE =           0.0000               STORAGE =           0.0000
       CONSTANT HEAD =         174.9424         CONSTANT HEAD =       2.0248E-03
            RECHARGE =           0.0000              RECHARGE =           0.0000

           TOTAL OUT =         174.9424             TOTAL OUT =       2.0248E-03

            IN - OUT =      -1.4954E-03              IN - OUT =      -1.7462E-08

 PERCENT DISCREPANCY =          -0.00     PERCENT DISCREPANCY =          -0.00






         TIME SUMMARY AT END OF TIME STEP    1 IN STRESS PERIOD    1
                    SECONDS     MINUTES      HOURS       DAYS        YEARS
                    -----------------------------------------------------------
   TIME STEP LENGTH  86400.      1440.0      24.000      1.0000     2.73785E-03
 STRESS PERIOD TIME  86400.      1440.0      24.000      1.0000     2.73785E-03
         TOTAL TIME  86400.      1440.0      24.000      1.0000     2.73785E-03
1
1
                            STRESS PERIOD NO.    2, LENGTH =   86400.00    
                            -----------------------------------------------

                              NUMBER OF TIME STEPS =     1

                               MULTIPLIER FOR DELT =     1.000

                            INITIAL TIME STEP SIZE =   86400.00    

 REUSING RECH FROM LAST STRESS PERIOD

 CHD NO.   LAYER   ROW   COL    START HEAD        END HEAD         IFACE           
 ----------------------------------------------------------------------------------
      1      4      3      1       110.7           110.6           0.000    
      2      5      3      1       110.7           110.6           0.000    
      3      4      3      2       110.7           110.6           0.000    
      4      5      3      2       110.7           110.6           0.000    
      5      4      3      3       110.7           110.6           0.000    
      6      5      3      3       110.7           110.6           0.000    
      7      4      3      4       110.7           110.6           0.000    
      8      5      3      4       110.7           110.6           0.000    
      9      4      3      5       110.7           110.6           0.000    
     10      5      3      5       110.7           110.6           0.000    
     11      4      3      6       110.7           110.6           0.000    
     12      5      3      6       110.7           110.6           0.000    
     13      4      3      7       110.7           110.6           0.000    
     14      5      3      7       110.7           110.6           0.000    
     15      4      3      8       110.7           110.6           0.000    
     16      5      3      8       110.7           110.6           0.000    
     17      4      2      8       110.7           110.6           0.000    
     18      5      2      8       110.7           110.6           0.000    
     19      4      2      9       110.7           110.6           0.000    
     20      5      2      9       110.7           110.6           0.000    
     21      4      2     10       110.7           110.6           0.000    
     22      5      2     10       110.7           110.6           0.000    
     23      4      2     11       110.7           110.6           0.000    
     24      5      2     11       110.7           110.6           0.000    
     25      4      2     12       110.7           110.6           0.000    
     26      5      2     12       110.7           110.6           0.000    
     27      4      2     13       110.7           110.6           0.000    
     28      5      2     13       110.7           110.6           0.000    
     29      4      2     14       110.7           110.6           0.000    
     30      5      2     14       110.7           110.6           0.000    
     31      4      2     15       110.7           110.6           0.000    
     32      5      2     15       110.7           110.6           0.000    
     33      4      2     16       110.7           110.6           0.000    
     34      5      2     16       110.7           110.6           0.000    
     35      4      2     17       110.7           110.6           0.000    
     36      5      2     17       110.7           110.6           0.000    
     37      4      2     18       110.7           110.6           0.000    
     38      5      2     18       110.7           110.6           0.000    
     39      4      2     19       110.7           110.6           0.000    
     40      5      2     19       110.7           110.6           0.000    
     41      4      2     20       110.7           110.6           0.000    
     42      5      2     20       110.7           110.6           0.000    
     43      4      2     21       110.7           110.6           0.000    
     44      5      2     21       110.7           110.6           0.000    
     45      4      2     22       110.7           110.6           0.000    
     46      5      2     22       110.7           110.6           0.000    
     47      4      2     23       110.7           110.6           0.000    
     48      5      2     23       110.7           110.6           0.000    
     49      4      2     24       110.7           110.6           0.000    
     50      5      2     24       110.7           110.6           0.000    
     51      4      2     25       110.7           110.6           0.000    
     52      5      2     25       110.7           110.6           0.000    
     53      4      2     26       110.7           110.6           0.000    
     54      5      2     26       110.7           110.6           0.000    
     55      4      1     26       110.7           110.6           0.000    
     56      5      1     26       110.7           110.6           0.000    
     57      4      1     27       110.7           110.6           0.000    
     58      5      1     27       110.7           110.6           0.000    
     59      4      1     28       110.7           110.6           0.000    
     60      5      1     28       110.7           110.6           0.000    
     61      4      1     29       110.7           110.6           0.000    
     62      5      1     29       110.7           110.6           0.000    
     63      4      1     30       110.7           110.6           0.000    
     64      5      1     30       110.7           110.6           0.000    
     65      4      1     31       110.7           110.6           0.000    
     66      5      1     31       110.7           110.6           0.000    
     67      4      1     32       110.7           110.6           0.000    
     68      5      1     32       110.7           110.6           0.000    
     69      4      1     33       110.7           110.6           0.000    
     70      5      1     33       110.7           110.6           0.000    
     71      4      1     34       110.7           110.6           0.000    
     72      5      1     34       110.7           110.6           0.000    
     73      4      1     35       110.7           110.6           0.000    
     74      5      1     35       110.7           110.6           0.000    
     75      4     36     35       110.5           110.4           0.000    
     76      5     36     35       110.5           110.4           0.000    
     77      4     35     34       110.5           110.4           0.000    
     78      5     35     34       110.5           110.4           0.000    
     79      4     36     34       110.5           110.4           0.000    
     80      5     36     34       110.5           110.4           0.000    
     81      4     36     33       110.5           110.4           0.000    
     82      5     36     33       110.5           110.4           0.000    
     83      4     36     32       110.5           110.4           0.000    
     84      5     36     32       110.5           110.4           0.000    
     85      4     37     32       110.5           110.4           0.000    
     86      5     37     32       110.5           110.4           0.000    
     87      4     37     31       110.5           110.4           0.000    
     88      5     37     31       110.5           110.4           0.000    
     89      4     38     31       110.5           110.4           0.000    
     90      5     38     31       110.5           110.4           0.000    
     91      4     38     30       110.5           110.4           0.000    
     92      5     38     30       110.5           110.4           0.000    
     93      4     39     30       110.5           110.4           0.000    
     94      5     39     30       110.5           110.4           0.000    
     95      4     39     29       110.5           110.4           0.000    
     96      5     39     29       110.5           110.4           0.000    
     97      4     40     29       110.5           110.4           0.000    
     98      5     40     29       110.5           110.4           0.000    
     99      4     40     28       110.5           110.4           0.000    
    100      5     40     28       110.5           110.4           0.000    
    101      4     40     27       110.5           110.4           0.000    
    102      5     40     27       110.5           110.4           0.000    
    103      4     41     27       110.5           110.4           0.000    
    104      5     41     27       110.5           110.4           0.000    
    105      4     41     26       110.5           110.4           0.000    
    106      5     41     26       110.5           110.4           0.000    
    107      4     41     25       110.5           110.4           0.000    
    108      5     41     25       110.5           110.4           0.000    
    109      4     41     24       110.5           110.4           0.000    
    110      5     41     24       110.5           110.4           0.000    
    111      4     41     23       110.5           110.4           0.000    
    112      5     41     23       110.5           110.4           0.000    
    113      4     41     22       110.5           110.4           0.000    
    114      5     41     22       110.5           110.4           0.000    
    115      4     42     22       110.5           110.4           0.000    
    116      5     42     22       110.5           110.4           0.000    
    117      4     42     21       110.5           110.4           0.000    
    118      5     42     21       110.5           110.4           0.000    
    119      4     42     20       110.5           110.4           0.000    
    120      5     42     20       110.5           110.4           0.000    
    121      4     42     19       110.5           110.4           0.000    
    122      5     42     19       110.5           110.4           0.000    
    123      4     43     18       110.5           110.4           0.000    
    124      5     43     18       110.5           110.4           0.000    
    125      4     42     18       110.5           110.4           0.000    
    126      5     42     18       110.5           110.4           0.000    
    127      4     42     17       110.5           110.4           0.000    
    128      5     42     17       110.5           110.4           0.000    
    129      4     42     16       110.5           110.4           0.000    
    130      5     42     16       110.5           110.4           0.000    
    131      4     42     15       110.5           110.4           0.000    
    132      5     42     15       110.5           110.4           0.000    
    133      4     43     15       110.5           110.4           0.000    
    134      5     43     15       110.5           110.4           0.000    
    135      4     43     14       110.5           110.4           0.000    
    136      5     43     14       110.5           110.4           0.000    
    137      4     43     13       110.5           110.4           0.000    
    138      5     43     13       110.5           110.4           0.000    
    139      4     43     12       110.5           110.4           0.000    
    140      5     43     12       110.5           110.4           0.000    
    141      4     43     11       110.5           110.4           0.000    
    142      5     43     11       110.5           110.4           0.000    
    143      4     43     10       110.5           110.4           0.000    
    144      5     43     10       110.5           110.4           0.000    
    145      4     44     10       110.5           110.4           0.000    
    146      5     44     10       110.5           110.4           0.000    
    147      4     44      9       110.5           110.4           0.000    
    148      5     44      9       110.5           110.4           0.000    
    149      4     44      8       110.5           110.4           0.000    
    150      5     44      8       110.5           110.4           0.000    
    151      4     44      7       110.5           110.4           0.000    
    152      5     44      7       110.5           110.4           0.000    
    153      4     44      6       110.5           110.4           0.000    
    154      5     44      6       110.5           110.4           0.000    
    155      4     44      5       110.5           110.4           0.000    
    156      5     44      5       110.5           110.4           0.000    
    157      4     44      4       110.5           110.4           0.000    
    158      5     44      4       110.5           110.4           0.000    
    159      4     44      3       110.5           110.4           0.000    
    160      5     44      3       110.5           110.4           0.000    
    161      4     45      3       110.5           110.4           0.000    
    162      5     45      3       110.5           110.4           0.000    
    163      4     45      2       110.5           110.4           0.000    
    164      5     45      2       110.5           110.4           0.000    
    165      4     45      1       110.5           110.4           0.000    
    166      5     45      1       110.5           110.4           0.000    


    166 TIME-VARIANT SPECIFIED-HEAD CELLS

 SOLVING FOR HEAD 


     3 CALLS TO PCG ROUTINE FOR TIME STEP   1 IN STRESS PERIOD    2
    54 TOTAL ITERATIONS

 MAXIMUM HEAD CHANGE FOR EACH ITERATION (1 INDICATES THE FIRST INNER ITERATION):

    HEAD CHANGE    HEAD CHANGE    HEAD CHANGE    HEAD CHANGE    HEAD CHANGE 
   LAYER,ROW,COL  LAYER,ROW,COL  LAYER,ROW,COL  LAYER,ROW,COL  LAYER,ROW,COL
 ---------------------------------------------------------------------------
  1 -0.3492      0  0.1773      0  0.1312      0 -0.1552      0  0.1189    
   (  5, 43,  5)  (  5, 39,  1)  (  5, 42,  1)  (  5, 38,  1)  (  5, 34,  1)
  0 -0.7315E-01  0 -0.4677E-01  0  0.3056E-01  0 -0.3322E-01  0  0.2568E-01
   (  5, 32,  2)  (  5, 41,  6)  (  5, 40,  1)  (  5, 37,  1)  (  5, 40,  5)
  0 -0.1997E-01  0 -0.1143E-01  0  0.9510E-02  0 -0.7662E-02  0 -0.7117E-02
   (  5, 39,  1)  (  5, 38,  4)  (  5, 36,  5)  (  5, 37,  8)  (  5, 13,  1)
  0  0.4529E-02  0  0.3209E-02  0 -0.2797E-02  0  0.1763E-02  0  0.1545E-02
   (  5, 13,  1)  (  5, 34,  1)  (  5, 35,  3)  (  5, 31,  8)  (  5, 36,  1)
  0 -0.1107E-02  0  0.1053E-02  0 -0.6146E-03  0 -0.4580E-03  0 -0.3298E-03
   (  5, 34,  1)  (  5, 37,  1)  (  5, 40,  2)  (  5, 36,  1)  (  5, 41,  2)
  0  0.2411E-03  0 -0.2721E-03  0 -0.1983E-03  0 -0.9902E-04  0  0.9777E-04
   (  5, 36,  7)  (  5, 38,  1)  (  5, 34,  6)  (  5, 12,  2)  (  5, 34,  3)
  1 -0.2466E-03  0  0.2910E-03  0 -0.2608E-03  0 -0.1228E-03  0  0.8175E-04
   (  5, 33,  3)  (  5, 30,  1)  (  5, 39,  1)  (  5, 11,  1)  (  5, 13,  2)
  0 -0.6339E-04  0 -0.5941E-04  0  0.5682E-04  0 -0.4599E-04  0 -0.3748E-04
   (  5, 24,  2)  (  5, 13,  2)  (  5, 36,  1)  (  5, 37,  1)  (  5, 14,  2)
  0  0.2647E-04  0 -0.2040E-04  0 -0.1256E-04  0 -0.9088E-05  0  0.5993E-05
   (  5, 13,  1)  (  5, 15,  1)  (  5, 36,  6)  (  5, 39,  1)  (  5, 31,  3)
  0 -0.6901E-05  0  0.4214E-05  0  0.3565E-05  0 -0.2766E-05  0 -0.2263E-05
   (  5, 33,  2)  (  5, 14,  1)  (  5, 40,  1)  (  5, 41,  1)  (  5, 38,  8)
  0 -0.1377E-05  0  0.1231E-05  0 -0.9070E-06  1  0.7467E-06
   (  5, 41,  2)  (  5, 37,  1)  (  5, 36,  3)  (  5, 34,  1)

 MAXIMUM RESIDUAL FOR EACH ITERATION (1 INDICATES THE FIRST INNER ITERATION):

    RESIDUAL       RESIDUAL       RESIDUAL       RESIDUAL       RESIDUAL    
   LAYER,ROW,COL  LAYER,ROW,COL  LAYER,ROW,COL  LAYER,ROW,COL  LAYER,ROW,COL
 ---------------------------------------------------------------------------
  1  0.9309E-03  0  0.7920E-03  0  0.6353E-03  0  0.5117E-03  0  0.4315E-03
   (  4, 35, 35)  (  4, 35, 35)  (  4, 35, 35)  (  3, 40, 27)  (  3, 40, 27)
  0 -0.3768E-03  0 -0.3078E-03  0 -0.2641E-03  0 -0.2116E-03  0 -0.1669E-03
   (  4, 43,  5)  (  4, 43,  5)  (  4, 43,  4)  (  4, 43,  4)  (  4, 43,  4)
  0 -0.1236E-03  0 -0.1007E-03  0 -0.7753E-04  0 -0.5656E-04  0 -0.4226E-04
   (  4, 44,  2)  (  4, 44,  2)  (  4, 44,  2)  (  4, 44,  2)  (  4, 44,  2)
  0 -0.3015E-04  0 -0.2472E-04  0 -0.2129E-04  0 -0.1668E-04  0 -0.1274E-04
   (  4, 44,  2)  (  4, 34, 35)  (  4, 34, 35)  (  4, 34, 35)  (  4, 34, 35)
  0 -0.1103E-04  0 -0.8865E-05  0 -0.6319E-05  0 -0.4320E-05  0 -0.2954E-05
   (  4, 34, 35)  (  4, 34, 35)  (  4, 34, 35)  (  4, 34, 35)  (  4, 34, 35)
  0 -0.1990E-05  0  0.1649E-05  0  0.1301E-05  0  0.9625E-06  0  0.7637E-06
   (  4, 34, 35)  (  4, 35, 35)  (  4, 35, 35)  (  4, 35, 35)  (  4, 35, 35)
  1  0.7015E-06  0  0.5754E-06  0  0.4585E-06  0 -0.3869E-06  0 -0.3541E-06
   (  2, 35, 34)  (  2, 35, 34)  (  2, 35, 34)  (  3, 35, 34)  (  3, 35, 34)
  0 -0.3313E-06  0 -0.2880E-06  0 -0.2556E-06  0 -0.2103E-06  0 -0.1535E-06
   (  3, 35, 34)  (  3, 35, 34)  (  3, 35, 34)  (  3, 35, 34)  (  3, 35, 34)
  0 -0.1206E-06  0 -0.9880E-07  0 -0.8104E-07  0 -0.6618E-07  0 -0.5890E-07
   (  3, 35, 34)  (  3, 35, 34)  (  3, 35, 34)  (  3, 35, 34)  (  3, 35, 34)
  0 -0.5218E-07  0 -0.4160E-07  0 -0.3134E-07  0 -0.2292E-07  0 -0.1584E-07
   (  3, 35, 34)  (  3, 35, 34)  (  3, 35, 34)  (  3, 35, 34)  (  3, 35, 34)
  0 -0.1179E-07  0 -0.9843E-08  0 -0.7579E-08  1  0.7401E-08
   (  3, 35, 34)  (  3, 35, 34)  (  3, 35, 34)  (  2, 35, 34)



 OUTPUT CONTROL FOR STRESS PERIOD    2   TIME STEP    1
    SAVE HEAD FOR ALL LAYERS
    SAVE DRAWDOWN FOR ALL LAYERS
    SAVE BUDGET
    PRINT BUDGET
 UBDSV1 SAVING "         STORAGE" ON UNIT   9 AT TIME STEP  1, STRESS PERIOD   2
 UBDSV2 SAVING "   CONSTANT HEAD" ON UNIT   9 AT TIME STEP  1, STRESS PERIOD   2
 UBDSV1 SAVING "FLOW RIGHT FACE " ON UNIT   9 AT TIME STEP  1, STRESS PERIOD   2
 UBDSV1 SAVING "FLOW FRONT FACE " ON UNIT   9 AT TIME STEP  1, STRESS PERIOD   2
 UBDSV1 SAVING "FLOW LOWER FACE " ON UNIT   9 AT TIME STEP  1, STRESS PERIOD   2
 UBDSV3 SAVING "        RECHARGE" ON UNIT   9 AT TIME STEP  1, STRESS PERIOD   2

 HEAD WILL BE SAVED ON UNIT   37 AT END OF TIME STEP    1, STRESS PERIOD    2

 DRAWDOWN WILL BE SAVED ON UNIT   38 AT END OF TIME STEP    1, STRESS PERIOD    2
1
  VOLUMETRIC BUDGET FOR ENTIRE MODEL AT END OF TIME STEP    1, STRESS PERIOD   2
  ------------------------------------------------------------------------------

     CUMULATIVE VOLUMES      L**3       RATES FOR THIS TIME STEP      L**3/T
     ------------------                 ------------------------

           IN:                                      IN:
           ---                                      ---
             STORAGE =         282.9010               STORAGE =       3.2743E-03
       CONSTANT HEAD =         228.3527         CONSTANT HEAD =       7.2032E-04
            RECHARGE =          17.6479              RECHARGE =       1.0213E-04

            TOTAL IN =         528.9016              TOTAL IN =       4.0968E-03

          OUT:                                     OUT:
          ----                                     ----
             STORAGE =           0.0000               STORAGE =           0.0000
       CONSTANT HEAD =         528.9150         CONSTANT HEAD =       4.0969E-03
            RECHARGE =           0.0000              RECHARGE =           0.0000

           TOTAL OUT =         528.9150             TOTAL OUT =       4.0969E-03

            IN - OUT =      -1.3489E-02              IN - OUT =      -1.3830E-07

 PERCENT DISCREPANCY =          -0.00     PERCENT DISCREPANCY =          -0.00






         TIME SUMMARY AT END OF TIME STEP    1 IN STRESS PERIOD    2
                    SECONDS     MINUTES      HOURS       DAYS        YEARS
                    -----------------------------------------------------------
   TIME STEP LENGTH  86400.      1440.0      24.000      1.0000     2.73785E-03
 STRESS PERIOD TIME  86400.      1440.0      24.000      1.0000     2.73785E-03
         TOTAL TIME 1.72800E+05  2880.0      48.000      2.0000     5.47570E-03
1
1
                            STRESS PERIOD NO.    3, LENGTH =   86400.00    
                            -----------------------------------------------

                              NUMBER OF TIME STEPS =     1

                               MULTIPLIER FOR DELT =     1.000

                            INITIAL TIME STEP SIZE =   86400.00    

 REUSING RECH FROM LAST STRESS PERIOD

 CHD NO.   LAYER   ROW   COL    START HEAD        END HEAD         IFACE           
 ----------------------------------------------------------------------------------
      1      4      3      1       110.6           110.5           0.000    
      2      5      3      1       110.6           110.5           0.000    
      3      4      3      2       110.6           110.5           0.000    
      4      5      3      2       110.6           110.5           0.000    
      5      4      3      3       110.6           110.5           0.000    
      6      5      3      3       110.6           110.5           0.000    
      7      4      3      4       110.6           110.5           0.000    
      8      5      3      4       110.6           110.5           0.000    
      9      4      3      5       110.6           110.5           0.000    
     10      5      3      5       110.6           110.5           0.000    
     11      4      3      6       110.6           110.5           0.000    
     12      5      3      6       110.6           110.5           0.000    
     13      4      3      7       110.6           110.5           0.000    
     14      5      3      7       110.6           110.5           0.000    
     15      4      3      8       110.6           110.5           0.000    
     16      5      3      8       110.6           110.5           0.000    
     17      4      2      8       110.6           110.5           0.000    
     18      5      2      8       110.6           110.5           0.000    
     19      4      2      9       110.6           110.5           0.000    
     20      5      2      9       110.6           110.5           0.000    
     21      4      2     10       110.6           110.5           0.000    
     22      5      2     10       110.6           110.5           0.000    
     23      4      2     11       110.6           110.5           0.000    
     24      5      2     11       110.6           110.5           0.000    
     25      4      2     12       110.6           110.5           0.000    
     26      5      2     12       110.6           110.5           0.000    
     27      4      2     13       110.6           110.5           0.000    
     28      5      2     13       110.6           110.5           0.000    
     29      4      2     14       110.6           110.5           0.000    
     30      5      2     14       110.6           110.5           0.000    
     31      4      2     15       110.6           110.5           0.000    
     32      5      2     15       110.6           110.5           0.000    
     33      4      2     16       110.6           110.5           0.000    
     34      5      2     16       110.6           110.5           0.000    
     35      4      2     17       110.6           110.5           0.000    
     36      5      2     17       110.6           110.5           0.000    
     37      4      2     18       110.6           110.5           0.000    
     38      5      2     18       110.6           110.5           0.000    
     39      4      2     19       110.6           110.5           0.000    
     40      5      2     19       110.6           110.5           0.000    
     41      4      2     20       110.6           110.5           0.000    
     42      5      2     20       110.6           110.5           0.000    
     43      4      2     21       110.6           110.5           0.000    
     44      5      2     21       110.6           110.5           0.000    
     45      4      2     22       110.6           110.5           0.000    
     46      5      2     22       110.6           110.5           0.000    
     47      4      2     23       110.6           110.5           0.000    
     48      5      2     23       110.6           110.5           0.000    
     49      4      2     24       110.6           110.5           0.000    
     50      5      2     24       110.6           110.5           0.000    
     51      4      2     25       110.6           110.5           0.000    
     52      5      2     25       110.6           110.5           0.000    
     53      4      2     26       110.6           110.5           0.000    
     54      5      2     26       110.6           110.5           0.000    
     55      4      1     26       110.6           110.5           0.000    
     56      5      1     26       110.6           110.5           0.000    
     57      4      1     27       110.6           110.5           0.000    
     58      5      1     27       110.6           110.5           0.000    
     59      4      1     28       110.6           110.5           0.000    
     60      5      1     28       110.6           110.5           0.000    
     61      4      1     29       110.6           110.5           0.000    
     62      5      1     29       110.6           110.5           0.000    
     63      4      1     30       110.6           110.5           0.000    
     64      5      1     30       110.6           110.5           0.000    
     65      4      1     31       110.6           110.5           0.000    
     66      5      1     31       110.6           110.5           0.000    
     67      4      1     32       110.6           110.5           0.000    
     68      5      1     32       110.6           110.5           0.000    
     69      4      1     33       110.6           110.5           0.000    
     70      5      1     33       110.6           110.5           0.000    
     71      4      1     34       110.6           110.5           0.000    
     72      5      1     34       110.6           110.5           0.000    
     73      4      1     35       110.6           110.5           0.000    
     74      5      1     35       110.6           110.5           0.000    
     75      4     36     35       110.4           110.3           0.000    
     76      5     36     35       110.4           110.3           0.000    
     77      4     35     34       110.4           110.3           0.000    
     78      5     35     34       110.4           110.3           0.000    
     79      4     36     34       110.4           110.3           0.000    
     80      5     36     34       110.4           110.3           0.000    
     81      4     36     33       110.4           110.3           0.000    
     82      5     36     33       110.4           110.3           0.000    
     83      4     36     32       110.4           110.3           0.000    
     84      5     36     32       110.4           110.3           0.000    
     85      4     37     32       110.4           110.3           0.000    
     86      5     37     32       110.4           110.3           0.000    
     87      4     37     31       110.4           110.3           0.000    
     88      5     37     31       110.4           110.3           0.000    
     89      4     38     31       110.4           110.3           0.000    
     90      5     38     31       110.4           110.3           0.000    
     91      4     38     30       110.4           110.3           0.000    
     92      5     38     30       110.4           110.3           0.000    
     93      4     39     30       110.4           110.3           0.000    
     94      5     39     30       110.4           110.3           0.000    
     95      4     39     29       110.4           110.3           0.000    
     96      5     39     29       110.4           110.3           0.000    
     97      4     40     29       110.4           110.3           0.000    
     98      5     40     29       110.4           110.3           0.000    
     99      4     40     28       110.4           110.3           0.000    
    100      5     40     28       110.4           110.3           0.000    
    101      4     40     27       110.4           110.3           0.000    
    102      5     40     27       110.4           110.3           0.000    
    103      4     41     27       110.4           110.3           0.000    
    104      5     41     27       110.4           110.3           0.000    
    105      4     41     26       110.4           110.3           0.000    
    106      5     41     26       110.4           110.3           0.000    
    107      4     41     25       110.4           110.3           0.000    
    108      5     41     25       110.4           110.3           0.000    
    109      4     41     24       110.4           110.3           0.000    
    110      5     41     24       110.4           110.3           0.000    
    111      4     41     23       110.4           110.3           0.000    
    112      5     41     23       110.4           110.3           0.000    
    113      4     41     22       110.4           110.3           0.000    
    114      5     41     22       110.4           110.3           0.000    
    115      4     42     22       110.4           110.3           0.000    
    116      5     42     22       110.4           110.3           0.000    
    117      4     42     21       110.4           110.3           0.000    
    118      5     42     21       110.4           110.3           0.000    
    119      4     42     20       110.4           110.3           0.000    
    120      5     42     20       110.4           110.3           0.000    
    121      4     42     19       110.4           110.3           0.000    
    122      5     42     19       110.4           110.3           0.000    
    123      4     43     18       110.4           110.3           0.000    
    124      5     43     18       110.4           110.3           0.000    
    125      4     42     18       110.4           110.3           0.000    
    126      5     42     18       110.4           110.3           0.000    
    127      4     42     17       110.4           110.3           0.000    
    128      5     42     17       110.4           110.3           0.000    
    129      4     42     16       110.4           110.3           0.000    
    130      5     42     16       110.4           110.3           0.000    
    131      4     42     15       110.4           110.3           0.000    
    132      5     42     15       110.4           110.3           0.000    
    133      4     43     15       110.4           110.3           0.000    
    134      5     43     15       110.4           110.3           0.000    
    135      4     43     14       110.4           110.3           0.000    
    136      5     43     14       110.4           110.3           0.000    
    137      4     43     13       110.4           110.3           0.000    
    138      5     43     13       110.4           110.3           0.000    
    139      4     43     12       110.4           110.3           0.000    
    140      5     43     12       110.4           110.3           0.000    
    141      4     43     11       110.4           110.3           0.000    
    142      5     43     11       110.4           110.3           0.000    
    143      4     43     10       110.4           110.3           0.000    
    144      5     43     10       110.4           110.3           0.000    
    145      4     44     10       110.4           110.3           0.000    
    146      5     44     10       110.4           110.3           0.000    
    147      4     44      9       110.4           110.3           0.000    
    148      5     44      9       110.4           110.3           0.000    
    149      4     44      8       110.4           110.3           0.000    
    150      5     44      8       110.4           110.3           0.000    
    151      4     44      7       110.4           110.3           0.000    
    152      5     44      7       110.4           110.3           0.000    
    153      4     44      6       110.4           110.3           0.000    
    154      5     44      6       110.4           110.3           0.000    
    155      4     44      5       110.4           110.3           0.000    
    156      5     44      5       110.4           110.3           0.000    
    157      4     44      4       110.4           110.3           0.000    
    158      5     44      4       110.4           110.3           0.000    
    159      4     44      3       110.4           110.3           0.000    
    160      5     44      3       110.4           110.3           0.000    
    161      4     45      3       110.4           110.3           0.000    
    162      5     45      3       110.4           110.3           0.000    
    163      4     45      2       110.4           110.3           0.000    
    164      5     45      2       110.4           110.3           0.000    
    165      4     45      1       110.4           110.3           0.000    
    166      5     45      1       110.4           110.3           0.000    


    166 TIME-VARIANT SPECIFIED-HEAD CELLS

 SOLVING FOR HEAD 


     3 CALLS TO PCG ROUTINE FOR TIME STEP   1 IN STRESS PERIOD    3
    55 TOTAL ITERATIONS

 MAXIMUM HEAD CHANGE FOR EACH ITERATION (1 INDICATES THE FIRST INNER ITERATION):

    HEAD CHANGE    HEAD CHANGE    HEAD CHANGE    HEAD CHANGE    HEAD CHANGE 
   LAYER,ROW,COL  LAYER,ROW,COL  LAYER,ROW,COL  LAYER,ROW,COL  LAYER,ROW,COL
 ---------------------------------------------------------------------------
  1 -0.3507      0  0.1967      0  0.1277      0 -0.1343      0  0.1030    
   (  5, 43,  5)  (  5, 39,  1)  (  5, 42,  1)  (  5, 39,  1)  (  5, 35,  1)
  0 -0.7827E-01  0  0.5073E-01  0  0.3205E-01  0  0.3117E-01  0  0.2505E-01
   (  5, 33,  2)  (  5, 31,  3)  (  5, 40,  1)  (  5, 38,  5)  (  5, 40,  5)
  0 -0.1785E-01  0  0.1139E-01  0  0.8294E-02  0 -0.7698E-02  0 -0.6882E-02
   (  5, 39,  1)  (  5, 42,  1)  (  5, 36,  5)  (  5, 37,  8)  (  5, 13,  1)
  0  0.4549E-02  0 -0.2955E-02  0  0.2323E-02  0  0.1841E-02  0  0.1908E-02
   (  5, 13,  1)  (  5, 36,  4)  (  5, 30,  1)  (  5, 31,  8)  (  5, 36,  1)
  0 -0.1093E-02  0  0.8971E-03  0 -0.5133E-03  0 -0.4941E-03  0  0.4094E-03
   (  5, 34,  1)  (  5, 37,  1)  (  5, 40,  2)  (  5, 36,  1)  (  5, 39,  2)
  0 -0.3610E-03  0 -0.2210E-03  0  0.1405E-03  0 -0.1250E-03  0 -0.1037E-03
   (  5, 37,  1)  (  5, 13,  2)  (  5, 40,  1)  (  5, 35,  6)  (  5, 34,  1)
  1  0.3009E-03  0 -0.2861E-03  0 -0.2943E-03  0  0.1706E-03  0 -0.9767E-04
   (  5, 30,  1)  (  5, 33,  3)  (  5, 39,  1)  (  5, 38,  1)  (  5, 37,  2)
  0  0.8891E-04  0 -0.7383E-04  0 -0.5885E-04  0  0.3481E-04  0 -0.5884E-04
   (  5, 35,  1)  (  5, 13,  2)  (  5, 22,  1)  (  5, 24,  5)  (  5, 14,  2)
  0  0.3484E-04  0 -0.2815E-04  0 -0.1281E-04  0 -0.1448E-04  0  0.7781E-05
   (  5, 14,  1)  (  5, 15,  1)  (  5, 13,  1)  (  5, 39,  1)  (  5, 31,  3)
  0 -0.7501E-05  0  0.6244E-05  0 -0.5001E-05  0  0.4774E-05  0 -0.3199E-05
   (  5, 31,  1)  (  5, 29,  8)  (  5, 31,  7)  (  5, 33,  7)  (  5, 36,  8)
  0  0.1974E-05  0  0.1255E-05  0 -0.1002E-05  0 -0.7252E-06  1  0.9357E-06
   (  5, 36,  6)  (  5, 36,  1)  (  5, 36,  3)  (  5, 35,  6)  (  5, 40,  1)

 MAXIMUM RESIDUAL FOR EACH ITERATION (1 INDICATES THE FIRST INNER ITERATION):

    RESIDUAL       RESIDUAL       RESIDUAL       RESIDUAL       RESIDUAL    
   LAYER,ROW,COL  LAYER,ROW,COL  LAYER,ROW,COL  LAYER,ROW,COL  LAYER,ROW,COL
 ---------------------------------------------------------------------------
  1  0.9764E-03  0  0.8373E-03  0  0.6679E-03  0  0.5155E-03  0  0.4357E-03
   (  4, 35, 35)  (  4, 35, 35)  (  4, 35, 35)  (  3, 40, 27)  (  3, 40, 27)
  0  0.3592E-03  0 -0.2921E-03  0 -0.2524E-03  0 -0.2050E-03  0 -0.1628E-03
   (  3, 40, 27)  (  4, 43,  5)  (  4, 43,  4)  (  4, 43,  4)  (  4, 43,  4)
  0 -0.1220E-03  0 -0.9133E-04  0 -0.7213E-04  0 -0.5436E-04  0 -0.4129E-04
   (  4, 43,  4)  (  4, 44,  2)  (  4, 44,  2)  (  4, 44,  2)  (  4, 44,  2)
  0 -0.2970E-04  0 -0.2408E-04  0 -0.2176E-04  0 -0.1683E-04  0 -0.1282E-04
   (  4, 44,  2)  (  4, 34, 35)  (  4, 34, 35)  (  4, 34, 35)  (  4, 34, 35)
  0 -0.1140E-04  0 -0.8777E-05  0 -0.6273E-05  0 -0.4403E-05  0 -0.3390E-05
   (  4, 34, 35)  (  4, 34, 35)  (  4, 34, 35)  (  4, 34, 35)  (  4, 34, 35)
  0 -0.2691E-05  0  0.1878E-05  0  0.1449E-05  0  0.1033E-05  0  0.8333E-06
   (  4, 34, 35)  (  4, 35, 35)  (  4, 35, 35)  (  4, 35, 35)  (  4, 35, 35)
  1  0.8752E-06  0  0.7134E-06  0  0.4960E-06  0 -0.4546E-06  0 -0.4075E-06
   (  2, 35, 34)  (  5, 14,  2)  (  2, 35, 34)  (  3, 35, 34)  (  3, 35, 34)
  0 -0.3668E-06  0 -0.3141E-06  0 -0.2678E-06  0  0.2207E-06  0  0.1698E-06
   (  3, 35, 34)  (  3, 35, 34)  (  3, 35, 34)  (  2, 35, 34)  (  4, 35, 35)
  0  0.1385E-06  0  0.1081E-06  0 -0.8832E-07  0 -0.7501E-07  0 -0.6520E-07
   (  2, 35, 34)  (  2, 35, 34)  (  3, 35, 34)  (  3, 35, 34)  (  3, 35, 34)
  0 -0.5971E-07  0 -0.4905E-07  0 -0.3671E-07  0 -0.2577E-07  0 -0.1830E-07
   (  3, 35, 34)  (  3, 35, 34)  (  3, 35, 34)  (  3, 35, 34)  (  3, 35, 34)
  0 -0.1335E-07  0 -0.1051E-07  0  0.8989E-08  0  0.6869E-08  1  0.6836E-08
   (  3, 35, 34)  (  3, 35, 34)  (  2, 35, 34)  (  2, 35, 34)  (  2, 35, 34)



 OUTPUT CONTROL FOR STRESS PERIOD    3   TIME STEP    1
    SAVE HEAD FOR ALL LAYERS
    SAVE DRAWDOWN FOR ALL LAYERS
    SAVE BUDGET
    PRINT BUDGET
 UBDSV1 SAVING "         STORAGE" ON UNIT   9 AT TIME STEP  1, STRESS PERIOD   3
 UBDSV2 SAVING "   CONSTANT HEAD" ON UNIT   9 AT TIME STEP  1, STRESS PERIOD   3
 UBDSV1 SAVING "FLOW RIGHT FACE " ON UNIT   9 AT TIME STEP  1, STRESS PERIOD   3
 UBDSV1 SAVING "FLOW FRONT FACE " ON UNIT   9 AT TIME STEP  1, STRESS PERIOD   3
 UBDSV1 SAVING "FLOW LOWER FACE " ON UNIT   9 AT TIME STEP  1, STRESS PERIOD   3
 UBDSV3 SAVING "        RECHARGE" ON UNIT   9 AT TIME STEP  1, STRESS PERIOD   3

 HEAD WILL BE SAVED ON UNIT   37 AT END OF TIME STEP    1, STRESS PERIOD    3

 DRAWDOWN WILL BE SAVED ON UNIT   38 AT END OF TIME STEP    1, STRESS PERIOD    3
1
  VOLUMETRIC BUDGET FOR ENTIRE MODEL AT END OF TIME STEP    1, STRESS PERIOD   3
  ------------------------------------------------------------------------------

     CUMULATIVE VOLUMES      L**3       RATES FOR THIS TIME STEP      L**3/T
     ------------------                 ------------------------

           IN:                                      IN:
           ---                                      ---
             STORAGE =         623.5624               STORAGE =       3.9428E-03
       CONSTANT HEAD =         302.1834         CONSTANT HEAD =       8.5452E-04
            RECHARGE =          26.4718              RECHARGE =       1.0213E-04

            TOTAL IN =         952.2177              TOTAL IN =       4.8995E-03

          OUT:                                     OUT:
          ----                                     ----
             STORAGE =           0.0000               STORAGE =           0.0000
       CONSTANT HEAD =         952.2433         CONSTANT HEAD =       4.8996E-03
            RECHARGE =           0.0000              RECHARGE =           0.0000

           TOTAL OUT =         952.2433             TOTAL OUT =       4.8996E-03

            IN - OUT =      -2.5635E-02              IN - OUT =      -1.4063E-07

 PERCENT DISCREPANCY =          -0.00     PERCENT DISCREPANCY =          -0.00






         TIME SUMMARY AT END OF TIME STEP    1 IN STRESS PERIOD    3
                    SECONDS     MINUTES      HOURS       DAYS        YEARS
                    -----------------------------------------------------------
   TIME STEP LENGTH  86400.      1440.0      24.000      1.0000     2.73785E-03
 STRESS PERIOD TIME  86400.      1440.0      24.000      1.0000     2.73785E-03
         TOTAL TIME 2.59200E+05  4320.0      72.000      3.0000     8.21355E-03
1
1
                            STRESS PERIOD NO.    4, LENGTH =   86400.00    
                            -----------------------------------------------

                              NUMBER OF TIME STEPS =     1

                               MULTIPLIER FOR DELT =     1.000

                            INITIAL TIME STEP SIZE =   86400.00    

 REUSING RECH FROM LAST STRESS PERIOD

 CHD NO.   LAYER   ROW   COL    START HEAD        END HEAD         IFACE           
 ----------------------------------------------------------------------------------
      1      4      3      1       110.5           110.4           0.000    
      2      5      3      1       110.5           110.4           0.000    
      3      4      3      2       110.5           110.4           0.000    
      4      5      3      2       110.5           110.4           0.000    
      5      4      3      3       110.5           110.4           0.000    
      6      5      3      3       110.5           110.4           0.000    
      7      4      3      4       110.5           110.4           0.000    
      8      5      3      4       110.5           110.4           0.000    
      9      4      3      5       110.5           110.4           0.000    
     10      5      3      5       110.5           110.4           0.000    
     11      4      3      6       110.5           110.4           0.000    
     12      5      3      6       110.5           110.4           0.000    
     13      4      3      7       110.5           110.4           0.000    
     14      5      3      7       110.5           110.4           0.000    
     15      4      3      8       110.5           110.4           0.000    
     16      5      3      8       110.5           110.4           0.000    
     17      4      2      8       110.5           110.4           0.000    
     18      5      2      8       110.5           110.4           0.000    
     19      4      2      9       110.5           110.4           0.000    
     20      5      2      9       110.5           110.4           0.000    
     21      4      2     10       110.5           110.4           0.000    
     22      5      2     10       110.5           110.4           0.000    
     23      4      2     11       110.5           110.4           0.000    
     24      5      2     11       110.5           110.4           0.000    
     25      4      2     12       110.5           110.4           0.000    
     26      5      2     12       110.5           110.4           0.000    
     27      4      2     13       110.5           110.4           0.000    
     28      5      2     13       110.5           110.4           0.000    
     29      4      2     14       110.5           110.4           0.000    
     30      5      2     14       110.5           110.4           0.000    
     31      4      2     15       110.5           110.4           0.000    
     32      5      2     15       110.5           110.4           0.000    
     33      4      2     16       110.5           110.4           0.000    
     34      5      2     16       110.5           110.4           0.000    
     35      4      2     17       110.5           110.4           0.000    
     36      5      2     17       110.5           110.4           0.000    
     37      4      2     18       110.5           110.4           0.000    
     38      5      2     18       110.5           110.4           0.000    
     39      4      2     19       110.5           110.4           0.000    
     40      5      2     19       110.5           110.4           0.000    
     41      4      2     20       110.5           110.4           0.000    
     42      5      2     20       110.5           110.4           0.000    
     43      4      2     21       110.5           110.4           0.000    
     44      5      2     21       110.5           110.4           0.000    
     45      4      2     22       110.5           110.4           0.000    
     46      5      2     22       110.5           110.4           0.000    
     47      4      2     23       110.5           110.4           0.000    
     48      5      2     23       110.5           110.4           0.000    
     49      4      2     24       110.5           110.4           0.000    
     50      5      2     24       110.5           110.4           0.000    
     51      4      2     25       110.5           110.4           0.000    
     52      5      2     25       110.5           110.4           0.000    
     53      4      2     26       110.5           110.4           0.000    
     54      5      2     26       110.5           110.4           0.000    
     55      4      1     26       110.5           110.4           0.000    
     56      5      1     26       110.5           110.4           0.000    
     57      4      1     27       110.5           110.4           0.000    
     58      5      1     27       110.5           110.4           0.000    
     59      4      1     28       110.5           110.4           0.000    
     60      5      1     28       110.5           110.4           0.000    
     61      4      1     29       110.5           110.4           0.000    
     62      5      1     29       110.5           110.4           0.000    
     63      4      1     30       110.5           110.4           0.000    
     64      5      1     30       110.5           110.4           0.000    
     65      4      1     31       110.5           110.4           0.000    
     66      5      1     31       110.5           110.4           0.000    
     67      4      1     32       110.5           110.4           0.000    
     68      5      1     32       110.5           110.4           0.000    
     69      4      1     33       110.5           110.4           0.000    
     70      5      1     33       110.5           110.4           0.000    
     71      4      1     34       110.5           110.4           0.000    
     72      5      1     34       110.5           110.4           0.000    
     73      4      1     35       110.5           110.4           0.000    
     74      5      1     35       110.5           110.4           0.000    
     75      4     36     35       110.3           110.2           0.000    
     76      5     36     35       110.3           110.2           0.000    
     77      4     35     34       110.3           110.2           0.000    
     78      5     35     34       110.3           110.2           0.000    
     79      4     36     34       110.3           110.2           0.000    
     80      5     36     34       110.3           110.2           0.000    
     81      4     36     33       110.3           110.2           0.000    
     82      5     36     33       110.3           110.2           0.000    
     83      4     36     32       110.3           110.2           0.000    
     84      5     36     32       110.3           110.2           0.000    
     85      4     37     32       110.3           110.2           0.000    
     86      5     37     32       110.3           110.2           0.000    
     87      4     37     31       110.3           110.2           0.000    
     88      5     37     31       110.3           110.2           0.000    
     89      4     38     31       110.3           110.2           0.000    
     90      5     38     31       110.3           110.2           0.000    
     91      4     38     30       110.3           110.2           0.000    
     92      5     38     30       110.3           110.2           0.000    
     93      4     39     30       110.3           110.2           0.000    
     94      5     39     30       110.3           110.2           0.000    
     95      4     39     29       110.3           110.2           0.000    
     96      5     39     29       110.3           110.2           0.000    
     97      4     40     29       110.3           110.2           0.000    
     98      5     40     29       110.3           110.2           0.000    
     99      4     40     28       110.3           110.2           0.000    
    100      5     40     28       110.3           110.2           0.000    
    101      4     40     27       110.3           110.2           0.000    
    102      5     40     27       110.3           110.2           0.000    
    103      4     41     27       110.3           110.2           0.000    
    104      5     41     27       110.3           110.2           0.000    
    105      4     41     26       110.3           110.2           0.000    
    106      5     41     26       110.3           110.2           0.000    
    107      4     41     25       110.3           110.2           0.000    
    108      5     41     25       110.3           110.2           0.000    
    109      4     41     24       110.3           110.2           0.000    
    110      5     41     24       110.3           110.2           0.000    
    111      4     41     23       110.3           110.2           0.000    
    112      5     41     23       110.3           110.2           0.000    
    113      4     41     22       110.3           110.2           0.000    
    114      5     41     22       110.3           110.2           0.000    
    115      4     42     22       110.3           110.2           0.000    
    116      5     42     22       110.3           110.2           0.000    
    117      4     42     21       110.3           110.2           0.000    
    118      5     42     21       110.3           110.2           0.000    
    119      4     42     20       110.3           110.2           0.000    
    120      5     42     20       110.3           110.2           0.000    
    121      4     42     19       110.3           110.2           0.000    
    122      5     42     19       110.3           110.2           0.000    
    123      4     43     18       110.3           110.2           0.000    
    124      5     43     18       110.3           110.2           0.000    
    125      4     42     18       110.3           110.2           0.000    
    126      5     42     18       110.3           110.2           0.000    
    127      4     42     17       110.3           110.2           0.000    
    128      5     42     17       110.3           110.2           0.000    
    129      4     42     16       110.3           110.2           0.000    
    130      5     42     16       110.3           110.2           0.000    
    131      4     42     15       110.3           110.2           0.000    
    132      5     42     15       110.3           110.2           0.000    
    133      4     43     15       110.3           110.2           0.000    
    134      5     43     15       110.3           110.2           0.000    
    135      4     43     14       110.3           110.2           0.000    
    136      5     43     14       110.3           110.2           0.000    
    137      4     43     13       110.3           110.2           0.000    
    138      5     43     13       110.3           110.2           0.000    
    139      4     43     12       110.3           110.2           0.000    
    140      5     43     12       110.3           110.2           0.000    
    141      4     43     11       110.3           110.2           0.000    
    142      5     43     11       110.3           110.2           0.000    
    143      4     43     10       110.3           110.2           0.000    
    144      5     43     10       110.3           110.2           0.000    
    145      4     44     10       110.3           110.2           0.000    
    146      5     44     10       110.3           110.2           0.000    
    147      4     44      9       110.3           110.2           0.000    
    148      5     44      9       110.3           110.2           0.000    
    149      4     44      8       110.3           110.2           0.000    
    150      5     44      8       110.3           110.2           0.000    
    151      4     44      7       110.3           110.2           0.000    
    152      5     44      7       110.3           110.2           0.000    
    153      4     44      6       110.3           110.2           0.000    
    154      5     44      6       110.3           110.2           0.000    
    155      4     44      5       110.3           110.2           0.000    
    156      5     44      5       110.3           110.2           0.000    
    157      4     44      4       110.3           110.2           0.000    
    158      5     44      4       110.3           110.2           0.000    
    159      4     44      3       110.3           110.2           0.000    
    160      5     44      3       110.3           110.2           0.000    
    161      4     45      3       110.3           110.2           0.000    
    162      5     45      3       110.3           110.2           0.000    
    163      4     45      2       110.3           110.2           0.000    
    164      5     45      2       110.3           110.2           0.000    
    165      4     45      1       110.3           110.2           0.000    
    166      5     45      1       110.3           110.2           0.000    


    166 TIME-VARIANT SPECIFIED-HEAD CELLS

 SOLVING FOR HEAD 


     3 CALLS TO PCG ROUTINE FOR TIME STEP   1 IN STRESS PERIOD    4
    54 TOTAL ITERATIONS

 MAXIMUM HEAD CHANGE FOR EACH ITERATION (1 INDICATES THE FIRST INNER ITERATION):

    HEAD CHANGE    HEAD CHANGE    HEAD CHANGE    HEAD CHANGE    HEAD CHANGE 
   LAYER,ROW,COL  LAYER,ROW,COL  LAYER,ROW,COL  LAYER,ROW,COL  LAYER,ROW,COL
 ---------------------------------------------------------------------------
  1 -0.2386      0  0.1443      0 -0.1012      0  0.7414E-01  0 -0.5493E-01
   (  5, 43,  5)  (  5, 39,  1)  (  5, 35,  1)  (  5, 32,  2)  (  5, 40,  1)
  0  0.5540E-01  0  0.3116E-01  0  0.2491E-01  0  0.2227E-01  0 -0.1709E-01
   (  5, 37,  1)  (  5, 39,  1)  (  5, 40,  1)  (  5, 38,  5)  (  5, 35,  5)
  0 -0.1136E-01  0  0.8658E-02  0 -0.6433E-02  0  0.4857E-02  0 -0.4866E-02
   (  5, 37,  5)  (  5, 34,  5)  (  5, 36,  9)  (  5, 13,  1)  (  5, 13,  1)
  0  0.2701E-02  0  0.1847E-02  0 -0.1613E-02  0  0.1400E-02  0  0.9934E-03
   (  5, 13,  1)  (  5, 34,  1)  (  5, 35,  3)  (  5, 31,  8)  (  5, 36,  1)
  0 -0.7042E-03  0 -0.5518E-03  0 -0.3718E-03  0  0.2623E-03  0  0.1937E-03
   (  5, 34,  1)  (  5, 12,  2)  (  5, 31,  7)  (  5, 15,  1)  (  5, 39,  2)
  0 -0.1980E-03  0  0.1278E-03  0  0.9978E-04  0  0.7729E-04  0 -0.7109E-04
   (  5, 37,  1)  (  5, 35,  1)  (  5, 28, 10)  (  5, 36,  1)  (  5, 34,  1)
  1  0.2121E-03  0  0.2272E-03  0 -0.1745E-03  0  0.1019E-03  0 -0.6785E-04
   (  5, 30,  1)  (  5, 11,  1)  (  5, 39,  1)  (  5, 38,  1)  (  5, 23,  1)
  0 -0.5891E-04  0  0.5515E-04  0 -0.4103E-04  0  0.2647E-04  0 -0.4076E-04
   (  5, 37,  1)  (  5, 35,  1)  (  5, 37,  1)  (  5, 13,  1)  (  5, 14,  1)
  0  0.2107E-04  0 -0.1661E-04  0 -0.1106E-04  0 -0.8260E-05  0 -0.6496E-05
   (  5, 15,  1)  (  5, 15,  1)  (  5, 13,  1)  (  5, 39,  1)  (  5, 34,  2)
  0  0.4992E-05  0  0.3376E-05  0 -0.3251E-05  0  0.3396E-05  0 -0.1982E-05
   (  5, 32,  3)  (  5, 30,  8)  (  5, 32,  8)  (  5, 34,  7)  (  5, 34,  6)
  0 -0.1694E-05  0  0.1126E-05  0 -0.8233E-06  1 -0.6096E-06
   (  5, 34,  1)  (  5, 37,  1)  (  5, 40,  1)  (  5, 36,  6)

 MAXIMUM RESIDUAL FOR EACH ITERATION (1 INDICATES THE FIRST INNER ITERATION):

    RESIDUAL       RESIDUAL       RESIDUAL       RESIDUAL       RESIDUAL    
   LAYER,ROW,COL  LAYER,ROW,COL  LAYER,ROW,COL  LAYER,ROW,COL  LAYER,ROW,COL
 ---------------------------------------------------------------------------
  1  0.5388E-03  0  0.4634E-03  0  0.3618E-03  0 -0.2866E-03  0 -0.2744E-03
   (  4, 35, 35)  (  4, 35, 35)  (  4, 35, 35)  (  4, 43,  6)  (  4, 43,  6)
  0 -0.2422E-03  0 -0.1993E-03  0 -0.1668E-03  0 -0.1314E-03  0 -0.1009E-03
   (  4, 43,  5)  (  4, 43,  4)  (  4, 43,  4)  (  4, 43,  4)  (  4, 43,  4)
  0 -0.8159E-04  0 -0.6524E-04  0 -0.4929E-04  0 -0.3677E-04  0 -0.2741E-04
   (  4, 44,  2)  (  4, 44,  2)  (  4, 44,  2)  (  4, 44,  2)  (  4, 44,  2)
  0 -0.1929E-04  0 -0.1501E-04  0 -0.1251E-04  0 -0.8391E-05  0 -0.6334E-05
   (  4, 44,  2)  (  4, 44,  2)  (  4, 44,  2)  (  4, 34, 35)  (  4, 34, 35)
  0 -0.5576E-05  0 -0.4186E-05  0 -0.2935E-05  0 -0.1992E-05  0  0.1450E-05
   (  4, 34, 35)  (  4, 34, 35)  (  4, 34, 35)  (  4, 34, 35)  (  4, 35, 35)
  0  0.1214E-05  0  0.9978E-06  0  0.7485E-06  0  0.4888E-06  0  0.3624E-06
   (  4, 35, 35)  (  4, 35, 35)  (  4, 35, 35)  (  4, 35, 35)  (  4, 35, 35)
  1  0.4221E-06  0  0.5006E-06  0  0.2416E-06  0 -0.2251E-06  0 -0.2092E-06
   (  2, 35, 34)  (  5, 14,  3)  (  2, 35, 34)  (  3, 35, 34)  (  3, 35, 34)
  0 -0.1915E-06  0 -0.1619E-06  0 -0.1381E-06  0  0.1093E-06  0  0.8608E-07
   (  3, 35, 34)  (  3, 35, 34)  (  3, 35, 34)  (  2, 35, 34)  (  2, 35, 34)
  0  0.6866E-07  0  0.5432E-07  0  0.4330E-07  0 -0.3571E-07  0 -0.3159E-07
   (  2, 35, 34)  (  2, 35, 34)  (  2, 35, 34)  (  3, 35, 34)  (  3, 35, 34)
  0 -0.2893E-07  0 -0.2418E-07  0 -0.1857E-07  0 -0.1335E-07  0 -0.9873E-08
   (  3, 35, 34)  (  3, 35, 34)  (  3, 35, 34)  (  3, 35, 34)  (  3, 35, 34)
  0 -0.7997E-08  0 -0.6493E-08  0 -0.4876E-08  1  0.4797E-08
   (  3, 35, 34)  (  3, 35, 34)  (  3, 35, 34)  (  2, 35, 34)



 OUTPUT CONTROL FOR STRESS PERIOD    4   TIME STEP    1
    SAVE HEAD FOR ALL LAYERS
    SAVE DRAWDOWN FOR ALL LAYERS
    SAVE BUDGET
    PRINT BUDGET
 UBDSV1 SAVING "         STORAGE" ON UNIT   9 AT TIME STEP  1, STRESS PERIOD   4
 UBDSV2 SAVING "   CONSTANT HEAD" ON UNIT   9 AT TIME STEP  1, STRESS PERIOD   4
 UBDSV1 SAVING "FLOW RIGHT FACE " ON UNIT   9 AT TIME STEP  1, STRESS PERIOD   4
 UBDSV1 SAVING "FLOW FRONT FACE " ON UNIT   9 AT TIME STEP  1, STRESS PERIOD   4
 UBDSV1 SAVING "FLOW LOWER FACE " ON UNIT   9 AT TIME STEP  1, STRESS PERIOD   4
 UBDSV3 SAVING "        RECHARGE" ON UNIT   9 AT TIME STEP  1, STRESS PERIOD   4

 HEAD WILL BE SAVED ON UNIT   37 AT END OF TIME STEP    1, STRESS PERIOD    4

 DRAWDOWN WILL BE SAVED ON UNIT   38 AT END OF TIME STEP    1, STRESS PERIOD    4
1
  VOLUMETRIC BUDGET FOR ENTIRE MODEL AT END OF TIME STEP    1, STRESS PERIOD   4
  ------------------------------------------------------------------------------

     CUMULATIVE VOLUMES      L**3       RATES FOR THIS TIME STEP      L**3/T
     ------------------                 ------------------------

           IN:                                      IN:
           ---                                      ---
             STORAGE =         920.9459               STORAGE =       3.4419E-03
       CONSTANT HEAD =         370.7063         CONSTANT HEAD =       7.9309E-04
            RECHARGE =          35.2957              RECHARGE =       1.0213E-04

            TOTAL IN =        1326.9480              TOTAL IN =       4.3372E-03

          OUT:                                     OUT:
          ----                                     ----
             STORAGE =           0.0000               STORAGE =           0.0000
       CONSTANT HEAD =        1326.9844         CONSTANT HEAD =       4.3373E-03
            RECHARGE =           0.0000              RECHARGE =           0.0000

           TOTAL OUT =        1326.9844             TOTAL OUT =       4.3373E-03

            IN - OUT =      -3.6377E-02              IN - OUT =      -1.2480E-07

 PERCENT DISCREPANCY =          -0.00     PERCENT DISCREPANCY =          -0.00






         TIME SUMMARY AT END OF TIME STEP    1 IN STRESS PERIOD    4
                    SECONDS     MINUTES      HOURS       DAYS        YEARS
                    -----------------------------------------------------------
   TIME STEP LENGTH  86400.      1440.0      24.000      1.0000     2.73785E-03
 STRESS PERIOD TIME  86400.      1440.0      24.000      1.0000     2.73785E-03
         TOTAL TIME 3.45600E+05  5760.0      96.000      4.0000     1.09514E-02
1
1
                            STRESS PERIOD NO.    5, LENGTH =   345600.0    
                            -----------------------------------------------

                              NUMBER OF TIME STEPS =     4

                               MULTIPLIER FOR DELT =     1.000

                            INITIAL TIME STEP SIZE =   86400.00    

 REUSING RECH FROM LAST STRESS PERIOD

 CHD NO.   LAYER   ROW   COL    START HEAD        END HEAD         IFACE           
 ----------------------------------------------------------------------------------
      1      4      3      1       110.4           109.9           0.000    
      2      5      3      1       110.4           109.9           0.000    
      3      4      3      2       110.4           109.9           0.000    
      4      5      3      2       110.4           109.9           0.000    
      5      4      3      3       110.4           109.9           0.000    
      6      5      3      3       110.4           109.9           0.000    
      7      4      3      4       110.4           109.9           0.000    
      8      5      3      4       110.4           109.9           0.000    
      9      4      3      5       110.4           109.9           0.000    
     10      5      3      5       110.4           109.9           0.000    
     11      4      3      6       110.4           109.9           0.000    
     12      5      3      6       110.4           109.9           0.000    
     13      4      3      7       110.4           109.9           0.000    
     14      5      3      7       110.4           109.9           0.000    
     15      4      3      8       110.4           109.9           0.000    
     16      5      3      8       110.4           109.9           0.000    
     17      4      2      8       110.4           109.9           0.000    
     18      5      2      8       110.4           109.9           0.000    
     19      4      2      9       110.4           109.9           0.000    
     20      5      2      9       110.4           109.9           0.000    
     21      4      2     10       110.4           109.9           0.000    
     22      5      2     10       110.4           109.9           0.000    
     23      4      2     11       110.4           109.9           0.000    
     24      5      2     11       110.4           109.9           0.000    
     25      4      2     12       110.4           109.9           0.000    
     26      5      2     12       110.4           109.9           0.000    
     27      4      2     13       110.4           109.9           0.000    
     28      5      2     13       110.4           109.9           0.000    
     29      4      2     14       110.4           109.9           0.000    
     30      5      2     14       110.4           109.9           0.000    
     31      4      2     15       110.4           109.9           0.000    
     32      5      2     15       110.4           109.9           0.000    
     33      4      2     16       110.4           109.9           0.000    
     34      5      2     16       110.4           109.9           0.000    
     35      4      2     17       110.4           109.9           0.000    
     36      5      2     17       110.4           109.9           0.000    
     37      4      2     18       110.4           109.9           0.000    
     38      5      2     18       110.4           109.9           0.000    
     39      4      2     19       110.4           109.9           0.000    
     40      5      2     19       110.4           109.9           0.000    
     41      4      2     20       110.4           109.9           0.000    
     42      5      2     20       110.4           109.9           0.000    
     43      4      2     21       110.4           109.9           0.000    
     44      5      2     21       110.4           109.9           0.000    
     45      4      2     22       110.4           109.9           0.000    
     46      5      2     22       110.4           109.9           0.000    
     47      4      2     23       110.4           109.9           0.000    
     48      5      2     23       110.4           109.9           0.000    
     49      4      2     24       110.4           109.9           0.000    
     50      5      2     24       110.4           109.9           0.000    
     51      4      2     25       110.4           109.9           0.000    
     52      5      2     25       110.4           109.9           0.000    
     53      4      2     26       110.4           109.9           0.000    
     54      5      2     26       110.4           109.9           0.000    
     55      4      1     26       110.4           109.9           0.000    
     56      5      1     26       110.4           109.9           0.000    
     57      4      1     27       110.4           109.9           0.000    
     58      5      1     27       110.4           109.9           0.000    
     59      4      1     28       110.4           109.9           0.000    
     60      5      1     28       110.4           109.9           0.000    
     61      4      1     29       110.4           109.9           0.000    
     62      5      1     29       110.4           109.9           0.000    
     63      4      1     30       110.4           109.9           0.000    
     64      5      1     30       110.4           109.9           0.000    
     65      4      1     31       110.4           109.9           0.000    
     66      5      1     31       110.4           109.9           0.000    
     67      4      1     32       110.4           109.9           0.000    
     68      5      1     32       110.4           109.9           0.000    
     69      4      1     33       110.4           109.9           0.000    
     70      5      1     33       110.4           109.9           0.000    
     71      4      1     34       110.4           109.9           0.000    
     72      5      1     34       110.4           109.9           0.000    
     73      4      1     35       110.4           109.9           0.000    
     74      5      1     35       110.4           109.9           0.000    
     75      4     36     35       110.2           109.5           0.000    
     76      5     36     35       110.2           109.5           0.000    
     77      4     35     34       110.2           109.5           0.000    
     78      5     35     34       110.2           109.5           0.000    
     79      4     36     34       110.2           109.5           0.000    
     80      5     36     34       110.2           109.5           0.000    
     81      4     36     33       110.2           109.5           0.000    
     82      5     36     33       110.2           109.5           0.000    
     83      4     36     32       110.2           109.5           0.000    
     84      5     36     32       110.2           109.5           0.000    
     85      4     37     32       110.2           109.5           0.000    
     86      5     37     32       110.2           109.5           0.000    
     87      4     37     31       110.2           109.5           0.000    
     88      5     37     31       110.2           109.5           0.000    
     89      4     38     31       110.2           109.5           0.000    
     90      5     38     31       110.2           109.5           0.000    
     91      4     38     30       110.2           109.5           0.000    
     92      5     38     30       110.2           109.5           0.000    
     93      4     39     30       110.2           109.5           0.000    
     94      5     39     30       110.2           109.5           0.000    
     95      4     39     29       110.2           109.5           0.000    
     96      5     39     29       110.2           109.5           0.000    
     97      4     40     29       110.2           109.5           0.000    
     98      5     40     29       110.2           109.5           0.000    
     99      4     40     28       110.2           109.4           0.000    
    100      5     40     28       110.2           109.4           0.000    
    101      4     40     27       110.2           109.4           0.000    
    102      5     40     27       110.2           109.4           0.000    
    103      4     41     27       110.2           109.4           0.000    
    104      5     41     27       110.2           109.4           0.000    
    105      4     41     26       110.2           109.4           0.000    
    106      5     41     26       110.2           109.4           0.000    
    107      4     41     25       110.2           109.4           0.000    
    108      5     41     25       110.2           109.4           0.000    
    109      4     41     24       110.2           109.4           0.000    
    110      5     41     24       110.2           109.4           0.000    
    111      4     41     23       110.2           109.4           0.000    
    112      5     41     23       110.2           109.4           0.000    
    113      4     41     22       110.2           109.4           0.000    
    114      5     41     22       110.2           109.4           0.000    
    115      4     42     22       110.2           109.4           0.000    
    116      5     42     22       110.2           109.4           0.000    
    117      4     42     21       110.2           109.4           0.000    
    118      5     42     21       110.2           109.4           0.000    
    119      4     42     20       110.2           109.4           0.000    
    120      5     42     20       110.2           109.4           0.000    
    121      4     42     19       110.2           109.4           0.000    
    122      5     42     19       110.2           109.4           0.000    
    123      4     43     18       110.2           109.4           0.000    
    124      5     43     18       110.2           109.4           0.000    
    125      4     42     18       110.2           109.4           0.000    
    126      5     42     18       110.2           109.4           0.000    
    127      4     42     17       110.2           109.4           0.000    
    128      5     42     17       110.2           109.4           0.000    
    129      4     42     16       110.2           109.4           0.000    
    130      5     42     16       110.2           109.4           0.000    
    131      4     42     15       110.2           109.4           0.000    
    132      5     42     15       110.2           109.4           0.000    
    133      4     43     15       110.2           109.4           0.000    
    134      5     43     15       110.2           109.4           0.000    
    135      4     43     14       110.2           109.4           0.000    
    136      5     43     14       110.2           109.4           0.000    
    137      4     43     13       110.2           109.4           0.000    
    138      5     43     13       110.2           109.4           0.000    
    139      4     43     12       110.2           109.4           0.000    
    140      5     43     12       110.2           109.4           0.000    
    141      4     43     11       110.2           109.4           0.000    
    142      5     43     11       110.2           109.4           0.000    
    143      4     43     10       110.2           109.4           0.000    
    144      5     43     10       110.2           109.4           0.000    
    145      4     44     10       110.2           109.4           0.000    
    146      5     44     10       110.2           109.4           0.000    
    147      4     44      9       110.2           109.4           0.000    
    148      5     44      9       110.2           109.4           0.000    
    149      4     44      8       110.2           109.4           0.000    
    150      5     44      8       110.2           109.4           0.000    
    151      4     44      7       110.2           109.4           0.000    
    152      5     44      7       110.2           109.4           0.000    
    153      4     44      6       110.2           109.4           0.000    
    154      5     44      6       110.2           109.4           0.000    
    155      4     44      5       110.2           109.4           0.000    
    156      5     44      5       110.2           109.4           0.000    
    157      4     44      4       110.2           109.4           0.000    
    158      5     44      4       110.2           109.4           0.000    
    159      4     44      3       110.2           109.4           0.000    
    160      5     44      3       110.2           109.4           0.000    
    161      4     45      3       110.2           109.4           0.000    
    162      5     45      3       110.2           109.4           0.000    
    163      4     45      2       110.2           109.4           0.000    
    164      5     45      2       110.2           109.4           0.000    
    165      4     45      1       110.2           109.4           0.000    
    166      5     45      1       110.2           109.4           0.000    


    166 TIME-VARIANT SPECIFIED-HEAD CELLS

 SOLVING FOR HEAD 


     4 CALLS TO PCG ROUTINE FOR TIME STEP   1 IN STRESS PERIOD    5
    68 TOTAL ITERATIONS

 MAXIMUM HEAD CHANGE FOR EACH ITERATION (1 INDICATES THE FIRST INNER ITERATION):

    HEAD CHANGE    HEAD CHANGE    HEAD CHANGE    HEAD CHANGE    HEAD CHANGE 
   LAYER,ROW,COL  LAYER,ROW,COL  LAYER,ROW,COL  LAYER,ROW,COL  LAYER,ROW,COL
 ---------------------------------------------------------------------------
  1 -0.6829      0  0.3686      0  0.2489      0 -0.2720      0  0.2149    
   (  5, 43,  5)  (  5, 39,  1)  (  5, 42,  1)  (  5, 38,  1)  (  5, 35,  1)
  0 -0.1491      0  0.8769E-01  0  0.6245E-01  0 -0.6123E-01  0  0.4864E-01
   (  5, 32,  2)  (  5, 39,  1)  (  5, 40,  1)  (  5, 37,  1)  (  5, 40,  5)
  0 -0.3530E-01  0 -0.2215E-01  0  0.1708E-01  0 -0.1492E-01  0 -0.1267E-01
   (  5, 39,  1)  (  5, 38,  4)  (  5, 36,  5)  (  5, 37,  8)  (  5, 13,  1)
  0  0.8827E-02  0 -0.5505E-02  0  0.4346E-02  0 -0.3308E-02  0  0.3191E-02
   (  5, 13,  1)  (  5, 33,  7)  (  5, 30,  1)  (  5, 37,  4)  (  5, 36,  1)
  0 -0.2092E-02  0  0.1897E-02  0 -0.1084E-02  0  0.8014E-03  0 -0.8326E-03
   (  5, 34,  1)  (  5, 37,  1)  (  5, 40,  2)  (  5, 39,  1)  (  5, 37,  1)
  0  0.5725E-03  0 -0.4069E-03  0 -0.3325E-03  0 -0.2183E-03  0  0.1733E-03
   (  5, 39,  2)  (  5, 31, 10)  (  5, 34,  6)  (  5, 12,  1)  (  5, 34,  3)
  1 -0.1386E-02  0  0.1816E-02  0 -0.8473E-03  0 -0.5075E-03  0 -0.3125E-03
   (  5, 33,  3)  (  5, 31,  1)  (  5, 38,  1)  (  5, 11,  1)  (  5, 37,  2)
  0  0.3317E-03  0 -0.2502E-03  0 -0.1872E-03  0  0.1507E-03  0 -0.1771E-03
   (  5, 36,  1)  (  5, 13,  2)  (  5, 22,  2)  (  5, 13,  1)  (  5, 14,  1)
  0  0.1320E-03  0 -0.7817E-04  0 -0.3678E-04  0  0.3330E-04  0  0.1945E-04
   (  5, 14,  1)  (  5, 15,  1)  (  5, 35,  5)  (  5, 13,  1)  (  5, 25, 11)
  0  0.2007E-04  0 -0.1577E-04  0  0.1132E-04  0  0.1042E-04  0 -0.7571E-05
   (  5, 35,  1)  (  5, 31,  1)  (  5, 40,  1)  (  5, 34,  8)  (  5, 37,  8)
  0 -0.4530E-05  0 -0.3891E-05  0 -0.2791E-05  0 -0.2160E-05  0 -0.2307E-05
   (  5, 33,  7)  (  5, 34,  1)  (  5, 27,  4)  (  5, 36,  6)  (  5, 37,  1)
  0  0.1222E-05  0 -0.1134E-05  0  0.6210E-06  1 -0.5514E-05  0  0.5743E-05
   (  5, 39,  2)  (  5, 41,  5)  (  5, 37,  1)  (  2, 43,  7)  (  5, 26,  1)
  0 -0.2598E-05  0  0.2380E-05  0 -0.1916E-05  0  0.1677E-05  0 -0.1382E-05
   (  5, 33,  4)  (  5, 32,  1)  (  5, 33,  1)  (  5, 38,  1)  (  5, 37,  1)
  0 -0.1034E-05  0  0.7621E-06  1 -0.4922E-06
   (  5, 36,  6)  (  5, 37,  1)  (  5, 36,  1)

 MAXIMUM RESIDUAL FOR EACH ITERATION (1 INDICATES THE FIRST INNER ITERATION):

    RESIDUAL       RESIDUAL       RESIDUAL       RESIDUAL       RESIDUAL    
   LAYER,ROW,COL  LAYER,ROW,COL  LAYER,ROW,COL  LAYER,ROW,COL  LAYER,ROW,COL
 ---------------------------------------------------------------------------
  1  0.1867E-02  0  0.1595E-02  0  0.1276E-02  0  0.1011E-02  0  0.8629E-03
   (  4, 35, 35)  (  4, 35, 35)  (  4, 35, 35)  (  3, 40, 27)  (  3, 40, 27)
  0 -0.6946E-03  0 -0.5724E-03  0 -0.4922E-03  0 -0.3969E-03  0 -0.3132E-03
   (  4, 43,  5)  (  4, 43,  5)  (  4, 43,  4)  (  4, 43,  4)  (  4, 43,  4)
  0 -0.2315E-03  0 -0.1799E-03  0 -0.1399E-03  0 -0.1036E-03  0 -0.7793E-04
   (  4, 43,  4)  (  4, 44,  2)  (  4, 44,  2)  (  4, 44,  2)  (  4, 44,  2)
  0 -0.5543E-04  0 -0.4477E-04  0 -0.4071E-04  0 -0.3192E-04  0 -0.2421E-04
   (  4, 44,  2)  (  4, 34, 35)  (  4, 34, 35)  (  4, 34, 35)  (  4, 34, 35)
  0 -0.2114E-04  0 -0.1664E-04  0 -0.1192E-04  0 -0.8249E-05  0 -0.6447E-05
   (  4, 34, 35)  (  4, 34, 35)  (  4, 34, 35)  (  4, 34, 35)  (  4, 34, 35)
  0 -0.5008E-05  0  0.3377E-05  0  0.2542E-05  0  0.1864E-05  0  0.1421E-05
   (  4, 34, 35)  (  4, 35, 35)  (  4, 35, 35)  (  4, 35, 35)  (  4, 35, 35)
  1  0.2147E-05  0  0.1602E-05  0  0.1407E-05  0 -0.1249E-05  0 -0.1114E-05
   (  2, 35, 34)  (  2, 35, 34)  (  2, 35, 34)  (  3, 35, 34)  (  3, 35, 34)
  0 -0.1009E-05  0 -0.8246E-06  0  0.7140E-06  0  0.5559E-06  0  0.4166E-06
   (  3, 35, 34)  (  3, 35, 34)  (  2, 35, 34)  (  2, 35, 34)  (  2, 35, 34)
  0  0.3265E-06  0  0.2580E-06  0  0.2060E-06  0  0.1689E-06  0 -0.1466E-06
   (  2, 35, 34)  (  2, 35, 34)  (  2, 35, 34)  (  2, 35, 34)  (  3, 35, 34)
  0 -0.1243E-06  0 -0.1149E-06  0 -0.8955E-07  0 -0.6715E-07  0 -0.4943E-07
   (  3, 35, 34)  (  3, 35, 34)  (  3, 35, 34)  (  3, 35, 34)  (  3, 35, 34)
  0 -0.3707E-07  0 -0.3209E-07  0  0.2586E-07  0  0.1952E-07  0  0.1499E-07
   (  3, 35, 34)  (  3, 35, 34)  (  2, 35, 34)  (  2, 35, 34)  (  2, 35, 34)
  0  0.1279E-07  0  0.9534E-08  0  0.7347E-08  1  0.8278E-08  0 -0.5436E-08
   (  2, 35, 34)  (  2, 35, 34)  (  2, 35, 34)  (  5, 15,  1)  (  3, 35, 34)
  0 -0.5009E-08  0 -0.4544E-08  0 -0.3946E-08  0 -0.3408E-08  0 -0.2602E-08
   (  3, 35, 34)  (  3, 35, 34)  (  3, 35, 34)  (  3, 35, 34)  (  3, 35, 34)
  0  0.1874E-08  0  0.1511E-08  1  0.1480E-08
   (  2, 35, 34)  (  2, 35, 34)  (  2, 35, 34)



 OUTPUT CONTROL FOR STRESS PERIOD    5   TIME STEP    1
    SAVE HEAD FOR ALL LAYERS
    SAVE DRAWDOWN FOR ALL LAYERS
    SAVE BUDGET
    PRINT BUDGET
 UBDSV1 SAVING "         STORAGE" ON UNIT   9 AT TIME STEP  1, STRESS PERIOD   5
 UBDSV2 SAVING "   CONSTANT HEAD" ON UNIT   9 AT TIME STEP  1, STRESS PERIOD   5
 UBDSV1 SAVING "FLOW RIGHT FACE " ON UNIT   9 AT TIME STEP  1, STRESS PERIOD   5
 UBDSV1 SAVING "FLOW FRONT FACE " ON UNIT   9 AT TIME STEP  1, STRESS PERIOD   5
 UBDSV1 SAVING "FLOW LOWER FACE " ON UNIT   9 AT TIME STEP  1, STRESS PERIOD   5
 UBDSV3 SAVING "        RECHARGE" ON UNIT   9 AT TIME STEP  1, STRESS PERIOD   5

 HEAD WILL BE SAVED ON UNIT   37 AT END OF TIME STEP    1, STRESS PERIOD    5

 DRAWDOWN WILL BE SAVED ON UNIT   38 AT END OF TIME STEP    1, STRESS PERIOD    5
1
  VOLUMETRIC BUDGET FOR ENTIRE MODEL AT END OF TIME STEP    1, STRESS PERIOD   5
  ------------------------------------------------------------------------------

     CUMULATIVE VOLUMES      L**3       RATES FOR THIS TIME STEP      L**3/T
     ------------------                 ------------------------

           IN:                                      IN:
           ---                                      ---
             STORAGE =        1532.4790               STORAGE =       7.0779E-03
       CONSTANT HEAD =         385.3592         CONSTANT HEAD =       1.6959E-04
            RECHARGE =          44.1197              RECHARGE =       1.0213E-04

            TOTAL IN =        1961.9579              TOTAL IN =       7.3497E-03

          OUT:                                     OUT:
          ----                                     ----
             STORAGE =           0.0000               STORAGE =           0.0000
       CONSTANT HEAD =        1962.0060         CONSTANT HEAD =       7.3498E-03
            RECHARGE =           0.0000              RECHARGE =           0.0000

           TOTAL OUT =        1962.0060             TOTAL OUT =       7.3498E-03

            IN - OUT =      -4.8096E-02              IN - OUT =      -1.3504E-07

 PERCENT DISCREPANCY =          -0.00     PERCENT DISCREPANCY =          -0.00






         TIME SUMMARY AT END OF TIME STEP    1 IN STRESS PERIOD    5
                    SECONDS     MINUTES      HOURS       DAYS        YEARS
                    -----------------------------------------------------------
   TIME STEP LENGTH  86400.      1440.0      24.000      1.0000     2.73785E-03
 STRESS PERIOD TIME  86400.      1440.0      24.000      1.0000     2.73785E-03
         TOTAL TIME 4.32000E+05  7200.0      120.00      5.0000     1.36893E-02
1

 SOLVING FOR HEAD 
     4 CALLS TO PCG ROUTINE FOR TIME STEP   2 IN STRESS PERIOD    5
    69 TOTAL ITERATIONS

 MAXIMUM HEAD CHANGE FOR EACH ITERATION (1 INDICATES THE FIRST INNER ITERATION):

    HEAD CHANGE    HEAD CHANGE    HEAD CHANGE    HEAD CHANGE    HEAD CHANGE 
   LAYER,ROW,COL  LAYER,ROW,COL  LAYER,ROW,COL  LAYER,ROW,COL  LAYER,ROW,COL
 ---------------------------------------------------------------------------
  1 -0.6980      0  0.3984      0  0.2531      0 -0.2629      0  0.2028    
   (  5, 43,  5)  (  5, 39,  1)  (  5, 42,  1)  (  5, 39,  1)  (  5, 36,  1)
  0 -0.1392      0  0.1126      0  0.6163E-01  0  0.6226E-01  0  0.4880E-01
   (  5, 33,  2)  (  5, 31,  2)  (  5, 40,  1)  (  5, 38,  5)  (  5, 40,  5)
  0 -0.3389E-01  0  0.2218E-01  0  0.1655E-01  0 -0.1449E-01  0 -0.1236E-01
   (  5, 39,  1)  (  5, 42,  1)  (  5, 42,  5)  (  5, 37,  8)  (  5, 13,  1)
  0  0.8947E-02  0 -0.5392E-02  0  0.4150E-02  0 -0.3142E-02  0  0.3947E-02
   (  5, 13,  1)  (  5, 33,  7)  (  5, 31,  8)  (  5, 28,  1)  (  5, 36,  1)
  0 -0.2699E-02  0  0.1571E-02  0 -0.1034E-02  0 -0.8119E-03  0 -0.6197E-03
   (  5, 34,  1)  (  5, 38,  1)  (  5, 40,  1)  (  5, 36,  1)  (  5, 15,  1)
  0  0.4137E-03  0 -0.5301E-03  0 -0.3323E-03  0 -0.2067E-03  0  0.1382E-03
   (  5, 39,  2)  (  5, 38,  1)  (  5, 34,  6)  (  5, 12,  1)  (  5, 33,  6)
  1  0.1427E-02  0 -0.1663E-02  0  0.7709E-03  0 -0.7360E-03  0 -0.3970E-03
   (  5, 38,  1)  (  5, 38,  1)  (  5, 32,  2)  (  5, 31,  1)  (  5, 22, 12)
  0  0.2842E-03  0 -0.3088E-03  0  0.2132E-03  0 -0.1845E-03  0 -0.2348E-03
   (  5, 36,  1)  (  5, 16,  1)  (  5, 35,  1)  (  5, 37,  1)  (  5, 14,  1)
  0  0.1594E-03  0 -0.1135E-03  0  0.4852E-04  0  0.6375E-04  0 -0.3257E-04
   (  5, 14,  1)  (  5, 40,  1)  (  5, 41,  1)  (  5, 13,  1)  (  5, 13,  1)
  0  0.2669E-04  0  0.2044E-04  0 -0.1573E-04  0  0.1476E-04  0 -0.1158E-04
   (  5, 13,  2)  (  5, 30,  1)  (  5, 34,  1)  (  5, 12,  1)  (  5, 12,  1)
  0  0.5151E-05  0 -0.3109E-05  0 -0.3920E-05  0  0.3121E-05  0 -0.2121E-05
   (  5, 37,  5)  (  5, 20,  8)  (  5, 39,  1)  (  5, 35,  1)  (  5, 36,  1)
  0 -0.1533E-05  0  0.1524E-05  0 -0.8763E-06  1  0.8766E-05  0 -0.9107E-05
   (  5, 22,  2)  (  5, 37,  1)  (  5, 30,  7)  (  5, 38,  4)  (  5, 35,  1)
  0  0.6548E-05  0  0.4388E-05  0 -0.2274E-05  0 -0.1816E-05  0 -0.1363E-05
   (  5, 30,  1)  (  5, 37,  1)  (  5, 41,  4)  (  5, 24,  1)  (  5, 35,  1)
  0 -0.1301E-05  0 -0.1205E-05  0 -0.9403E-06  1 -0.5797E-06
   (  5, 18,  1)  (  5, 39,  1)  (  5, 33,  1)  (  5, 32,  5)

 MAXIMUM RESIDUAL FOR EACH ITERATION (1 INDICATES THE FIRST INNER ITERATION):

    RESIDUAL       RESIDUAL       RESIDUAL       RESIDUAL       RESIDUAL    
   LAYER,ROW,COL  LAYER,ROW,COL  LAYER,ROW,COL  LAYER,ROW,COL  LAYER,ROW,COL
 ---------------------------------------------------------------------------
  1  0.1890E-02  0  0.1619E-02  0  0.1278E-02  0  0.9763E-03  0  0.7940E-03
   (  4, 35, 35)  (  4, 35, 35)  (  4, 35, 35)  (  3, 40, 27)  (  3, 40, 27)
  0 -0.6745E-03  0 -0.5726E-03  0 -0.4922E-03  0 -0.3971E-03  0 -0.3116E-03
   (  4, 43,  5)  (  4, 43,  4)  (  4, 43,  4)  (  4, 43,  4)  (  4, 43,  4)
  0 -0.2329E-03  0 -0.1795E-03  0 -0.1395E-03  0 -0.1042E-03  0 -0.7835E-04
   (  4, 43,  4)  (  4, 44,  2)  (  4, 44,  2)  (  4, 44,  2)  (  4, 44,  2)
  0 -0.5533E-04  0 -0.4267E-04  0 -0.3387E-04  0 -0.3038E-04  0 -0.2377E-04
   (  4, 44,  2)  (  4, 34, 35)  (  4, 34, 35)  (  4, 34, 35)  (  4, 34, 35)
  0 -0.2110E-04  0 -0.1576E-04  0 -0.1126E-04  0 -0.7731E-05  0 -0.5312E-05
   (  4, 34, 35)  (  4, 34, 35)  (  4, 34, 35)  (  4, 34, 35)  (  4, 34, 35)
  0 -0.4199E-05  0  0.3266E-05  0  0.2439E-05  0  0.1754E-05  0  0.1226E-05
   (  4, 34, 35)  (  4, 35, 35)  (  4, 35, 35)  (  4, 35, 35)  (  4, 35, 35)
  1  0.2622E-05  0  0.1880E-05  0 -0.1442E-05  0 -0.1363E-05  0 -0.1197E-05
   (  5, 15,  2)  (  5, 15,  2)  (  3, 35, 34)  (  3, 35, 34)  (  3, 35, 34)
  0 -0.1049E-05  0 -0.7998E-06  0  0.6220E-06  0  0.5161E-06  0  0.4084E-06
   (  3, 35, 34)  (  3, 35, 34)  (  2, 35, 34)  (  2, 35, 34)  (  4, 35, 35)
  0  0.2947E-06  0 -0.2612E-06  0 -0.2011E-06  0  0.1468E-06  0 -0.1245E-06
   (  2, 35, 34)  (  4, 34, 35)  (  4, 34, 35)  (  2, 35, 34)  (  3, 35, 34)
  0 -0.1069E-06  0 -0.9801E-07  0 -0.8125E-07  0 -0.6065E-07  0 -0.4427E-07
   (  3, 35, 34)  (  3, 35, 34)  (  3, 35, 34)  (  3, 35, 34)  (  3, 35, 34)
  0 -0.3145E-07  0 -0.2376E-07  0  0.1835E-07  0  0.1611E-07  0  0.1184E-07
   (  3, 35, 34)  (  3, 35, 34)  (  2, 35, 34)  (  2, 35, 34)  (  2, 35, 34)
  0  0.9639E-08  0  0.7912E-08  0  0.6269E-08  1  0.1563E-07  0  0.1066E-07
   (  2, 35, 34)  (  2, 35, 34)  (  2, 35, 34)  (  5, 15,  1)  (  5, 15,  1)
  0  0.6420E-08  0  0.5651E-08  0  0.4727E-08  0  0.4263E-08  0 -0.3531E-08
   (  2, 43,  1)  (  2, 43,  1)  (  2, 43,  1)  (  2, 43,  1)  (  3, 44,  1)
  0 -0.2907E-08  0 -0.2165E-08  0 -0.1562E-08  1 -0.1589E-08
   (  3, 44,  1)  (  3, 44,  1)  (  3, 44,  1)  (  3, 44,  1)



 OUTPUT CONTROL FOR STRESS PERIOD    5   TIME STEP    2
    SAVE HEAD FOR ALL LAYERS
    SAVE DRAWDOWN FOR ALL LAYERS
    SAVE BUDGET
    PRINT BUDGET
 UBDSV1 SAVING "         STORAGE" ON UNIT   9 AT TIME STEP  2, STRESS PERIOD   5
 UBDSV2 SAVING "   CONSTANT HEAD" ON UNIT   9 AT TIME STEP  2, STRESS PERIOD   5
 UBDSV1 SAVING "FLOW RIGHT FACE " ON UNIT   9 AT TIME STEP  2, STRESS PERIOD   5
 UBDSV1 SAVING "FLOW FRONT FACE " ON UNIT   9 AT TIME STEP  2, STRESS PERIOD   5
 UBDSV1 SAVING "FLOW LOWER FACE " ON UNIT   9 AT TIME STEP  2, STRESS PERIOD   5
 UBDSV3 SAVING "        RECHARGE" ON UNIT   9 AT TIME STEP  2, STRESS PERIOD   5

 HEAD WILL BE SAVED ON UNIT   37 AT END OF TIME STEP    2, STRESS PERIOD    5

 DRAWDOWN WILL BE SAVED ON UNIT   38 AT END OF TIME STEP    2, STRESS PERIOD    5
1
  VOLUMETRIC BUDGET FOR ENTIRE MODEL AT END OF TIME STEP    2, STRESS PERIOD   5
  ------------------------------------------------------------------------------

     CUMULATIVE VOLUMES      L**3       RATES FOR THIS TIME STEP      L**3/T
     ------------------                 ------------------------

           IN:                                      IN:
           ---                                      ---
             STORAGE =        2236.8115               STORAGE =       8.1520E-03
       CONSTANT HEAD =         411.3394         CONSTANT HEAD =       3.0070E-04
            RECHARGE =          52.9436              RECHARGE =       1.0213E-04

            TOTAL IN =        2701.0945              TOTAL IN =       8.5548E-03

          OUT:                                     OUT:
          ----                                     ----
             STORAGE =           0.0000               STORAGE =           0.0000
       CONSTANT HEAD =        2701.1528         CONSTANT HEAD =       8.5549E-03
            RECHARGE =           0.0000              RECHARGE =           0.0000

           TOTAL OUT =        2701.1528             TOTAL OUT =       8.5549E-03

            IN - OUT =      -5.8350E-02              IN - OUT =      -1.2014E-07

 PERCENT DISCREPANCY =          -0.00     PERCENT DISCREPANCY =          -0.00






         TIME SUMMARY AT END OF TIME STEP    2 IN STRESS PERIOD    5
                    SECONDS     MINUTES      HOURS       DAYS        YEARS
                    -----------------------------------------------------------
   TIME STEP LENGTH  86400.      1440.0      24.000      1.0000     2.73785E-03
 STRESS PERIOD TIME 1.72800E+05  2880.0      48.000      2.0000     5.47570E-03
         TOTAL TIME 5.18400E+05  8640.0      144.00      6.0000     1.64271E-02
1

 SOLVING FOR HEAD 
     4 CALLS TO PCG ROUTINE FOR TIME STEP   3 IN STRESS PERIOD    5
    70 TOTAL ITERATIONS

 MAXIMUM HEAD CHANGE FOR EACH ITERATION (1 INDICATES THE FIRST INNER ITERATION):

    HEAD CHANGE    HEAD CHANGE    HEAD CHANGE    HEAD CHANGE    HEAD CHANGE 
   LAYER,ROW,COL  LAYER,ROW,COL  LAYER,ROW,COL  LAYER,ROW,COL  LAYER,ROW,COL
 ---------------------------------------------------------------------------
  1 -0.7024      0  0.4073      0 -0.2602      0 -0.2481      0 -0.1515    
   (  5, 43,  5)  (  5, 39,  1)  (  5, 35,  1)  (  5, 39,  1)  (  5, 41,  1)
  0  0.1192      0 -0.9760E-01  0  0.6859E-01  0 -0.6622E-01  0  0.4884E-01
   (  5, 38,  1)  (  5, 35,  2)  (  5, 40,  1)  (  5, 37,  1)  (  5, 40,  5)
  0 -0.3274E-01  0  0.2277E-01  0  0.1671E-01  0 -0.1387E-01  0 -0.1176E-01
   (  5, 37,  5)  (  5, 35,  5)  (  5, 42,  6)  (  5, 37,  8)  (  5, 13,  1)
  0  0.8803E-02  0 -0.5083E-02  0  0.3707E-02  0  0.2793E-02  0 -0.2985E-02
   (  5, 13,  1)  (  5, 13,  1)  (  5, 31,  8)  (  5, 27,  1)  (  5, 32,  1)
  0  0.2385E-02  0 -0.2328E-02  0  0.1070E-02  0 -0.8493E-03  0 -0.5631E-03
   (  5, 37,  1)  (  5, 35,  1)  (  5, 37,  4)  (  5, 36,  1)  (  5, 15,  1)
  0 -0.4204E-03  0 -0.4153E-03  0  0.3206E-03  0 -0.1896E-03  0 -0.1125E-03
   (  5, 31, 10)  (  5, 38,  1)  (  5, 36,  1)  (  5, 26,  8)  (  5, 26,  1)
  1  0.1779E-02  0 -0.1668E-02  0  0.1185E-02  0 -0.6607E-03  0 -0.4472E-03
   (  5, 38,  1)  (  5, 38,  1)  (  5, 32,  1)  (  5, 15,  2)  (  5, 22, 13)
  0 -0.4493E-03  0 -0.2978E-03  0  0.3004E-03  0 -0.3064E-03  0 -0.2783E-03
   (  5, 38,  1)  (  5, 13,  2)  (  5, 13,  1)  (  5, 37,  1)  (  5, 13,  1)
  0  0.1957E-03  0 -0.9293E-04  0 -0.5942E-04  0  0.4822E-04  0  0.4353E-04
   (  5, 14,  1)  (  5, 15,  1)  (  5, 13,  1)  (  5, 15,  1)  (  5, 12,  2)
  0 -0.3123E-04  0 -0.2281E-04  0  0.2172E-04  0 -0.1430E-04  0 -0.9268E-05
   (  5, 12,  1)  (  5, 34,  1)  (  5, 29,  1)  (  5, 41,  1)  (  5, 38,  8)
  0  0.6503E-05  0 -0.3666E-05  0  0.4927E-05  0 -0.3785E-05  0  0.2513E-05
   (  5, 37,  5)  (  5, 20,  8)  (  5, 35,  1)  (  5, 38,  1)  (  5, 39,  5)
  0 -0.1656E-05  0  0.1888E-05  0 -0.9674E-06  1  0.1088E-04  0 -0.1258E-04
   (  5, 41,  4)  (  5, 38,  1)  (  5, 38,  3)  (  5, 38,  4)  (  5, 36,  1)
  0  0.7340E-05  0 -0.4117E-05  0 -0.2805E-05  0 -0.1770E-05  0 -0.2245E-05
   (  5, 30,  1)  (  5, 31,  3)  (  5, 41,  5)  (  5, 23,  1)  (  5, 35,  1)
  0 -0.1746E-05  0  0.1307E-05  0  0.1093E-05  0  0.7947E-06  1 -0.6423E-06
   (  5, 38,  1)  (  5, 37,  1)  (  5, 34,  5)  (  5, 13,  1)  (  5, 13,  1)

 MAXIMUM RESIDUAL FOR EACH ITERATION (1 INDICATES THE FIRST INNER ITERATION):

    RESIDUAL       RESIDUAL       RESIDUAL       RESIDUAL       RESIDUAL    
   LAYER,ROW,COL  LAYER,ROW,COL  LAYER,ROW,COL  LAYER,ROW,COL  LAYER,ROW,COL
 ---------------------------------------------------------------------------
  1  0.1892E-02  0  0.1623E-02  0  0.1277E-02  0  0.9688E-03  0  0.7699E-03
   (  4, 35, 35)  (  4, 35, 35)  (  4, 35, 35)  (  3, 40, 27)  (  3, 40, 27)
  0 -0.6486E-03  0 -0.5604E-03  0 -0.4879E-03  0 -0.3928E-03  0 -0.3072E-03
   (  4, 43,  5)  (  4, 43,  4)  (  4, 43,  4)  (  4, 43,  4)  (  4, 43,  4)
  0 -0.2303E-03  0 -0.1777E-03  0 -0.1375E-03  0 -0.1027E-03  0 -0.7686E-04
   (  4, 43,  4)  (  4, 44,  2)  (  4, 44,  2)  (  4, 44,  2)  (  4, 44,  2)
  0 -0.5393E-04  0 -0.4156E-04  0 -0.3198E-04  0 -0.2863E-04  0 -0.2228E-04
   (  4, 44,  2)  (  4, 34, 35)  (  4, 34, 35)  (  4, 34, 35)  (  4, 34, 35)
  0 -0.1909E-04  0 -0.1503E-04  0 -0.1077E-04  0 -0.7364E-05  0 -0.4983E-05
   (  4, 34, 35)  (  4, 34, 35)  (  4, 34, 35)  (  4, 34, 35)  (  4, 34, 35)
  0  0.3457E-05  0  0.2745E-05  0  0.2238E-05  0  0.1637E-05  0  0.1218E-05
   (  4, 35, 35)  (  4, 35, 35)  (  4, 35, 35)  (  4, 35, 35)  (  4, 35, 35)
  1  0.2336E-05  0  0.2128E-05  0 -0.1451E-05  0 -0.1353E-05  0 -0.1178E-05
   (  5, 15,  2)  (  5, 15,  2)  (  3, 35, 34)  (  3, 35, 34)  (  3, 35, 34)
  0 -0.1020E-05  0 -0.7378E-06  0  0.5444E-06  0  0.5254E-06  0 -0.4407E-06
   (  3, 35, 34)  (  3, 35, 34)  (  4, 35, 35)  (  4, 35, 35)  (  5, 14,  2)
  0 -0.3171E-06  0 -0.3016E-06  0 -0.2317E-06  0 -0.1434E-06  0 -0.8664E-07
   (  4, 34, 35)  (  4, 34, 35)  (  4, 34, 35)  (  4, 34, 35)  (  3, 35, 34)
  0 -0.7774E-07  0 -0.7026E-07  0 -0.6074E-07  0 -0.4518E-07  0 -0.3296E-07
   (  3, 35, 34)  (  3, 35, 34)  (  3, 35, 34)  (  3, 35, 34)  (  3, 35, 34)
  0 -0.2259E-07  0 -0.1655E-07  0 -0.1298E-07  0  0.1028E-07  0  0.7338E-08
   (  3, 35, 34)  (  3, 35, 34)  (  3, 35, 34)  (  2, 35, 34)  (  2, 35, 34)
  0  0.5526E-08  0  0.4553E-08  0  0.3771E-08  1  0.1665E-07  0  0.1130E-07
   (  2, 35, 34)  (  2, 35, 34)  (  2, 35, 34)  (  2, 44,  1)  (  2, 44,  1)
  0  0.9045E-08  0 -0.7891E-08  0 -0.6388E-08  0 -0.5843E-08  0 -0.4817E-08
   (  2, 44,  1)  (  3, 44,  1)  (  3, 44,  1)  (  3, 44,  1)  (  3, 44,  1)
  0 -0.3869E-08  0 -0.2853E-08  0 -0.2018E-08  0 -0.1942E-08  1 -0.1603E-08
   (  3, 44,  1)  (  3, 44,  1)  (  3, 44,  1)  (  4, 34, 35)  (  4, 34, 35)



 OUTPUT CONTROL FOR STRESS PERIOD    5   TIME STEP    3
    SAVE HEAD FOR ALL LAYERS
    SAVE DRAWDOWN FOR ALL LAYERS
    SAVE BUDGET
    PRINT BUDGET
 UBDSV1 SAVING "         STORAGE" ON UNIT   9 AT TIME STEP  3, STRESS PERIOD   5
 UBDSV2 SAVING "   CONSTANT HEAD" ON UNIT   9 AT TIME STEP  3, STRESS PERIOD   5
 UBDSV1 SAVING "FLOW RIGHT FACE " ON UNIT   9 AT TIME STEP  3, STRESS PERIOD   5
 UBDSV1 SAVING "FLOW FRONT FACE " ON UNIT   9 AT TIME STEP  3, STRESS PERIOD   5
 UBDSV1 SAVING "FLOW LOWER FACE " ON UNIT   9 AT TIME STEP  3, STRESS PERIOD   5
 UBDSV3 SAVING "        RECHARGE" ON UNIT   9 AT TIME STEP  3, STRESS PERIOD   5

 HEAD WILL BE SAVED ON UNIT   37 AT END OF TIME STEP    3, STRESS PERIOD    5

 DRAWDOWN WILL BE SAVED ON UNIT   38 AT END OF TIME STEP    3, STRESS PERIOD    5
1
  VOLUMETRIC BUDGET FOR ENTIRE MODEL AT END OF TIME STEP    3, STRESS PERIOD   5
  ------------------------------------------------------------------------------

     CUMULATIVE VOLUMES      L**3       RATES FOR THIS TIME STEP      L**3/T
     ------------------                 ------------------------

           IN:                                      IN:
           ---                                      ---
             STORAGE =        2973.5044               STORAGE =       8.5265E-03
       CONSTANT HEAD =         468.9249         CONSTANT HEAD =       6.6650E-04
            RECHARGE =          61.7676              RECHARGE =       1.0213E-04

            TOTAL IN =        3504.1968              TOTAL IN =       9.2952E-03

          OUT:                                     OUT:
          ----                                     ----
             STORAGE =           0.0000               STORAGE =           0.0000
       CONSTANT HEAD =        3504.2651         CONSTANT HEAD =       9.2953E-03
            RECHARGE =           0.0000              RECHARGE =           0.0000

           TOTAL OUT =        3504.2651             TOTAL OUT =       9.2953E-03

            IN - OUT =      -6.8359E-02              IN - OUT =      -1.1642E-07

 PERCENT DISCREPANCY =          -0.00     PERCENT DISCREPANCY =          -0.00






         TIME SUMMARY AT END OF TIME STEP    3 IN STRESS PERIOD    5
                    SECONDS     MINUTES      HOURS       DAYS        YEARS
                    -----------------------------------------------------------
   TIME STEP LENGTH  86400.      1440.0      24.000      1.0000     2.73785E-03
 STRESS PERIOD TIME 2.59200E+05  4320.0      72.000      3.0000     8.21355E-03
         TOTAL TIME 6.04800E+05  10080.      168.00      7.0000     1.91650E-02
1

 SOLVING FOR HEAD 
     4 CALLS TO PCG ROUTINE FOR TIME STEP   4 IN STRESS PERIOD    5
    72 TOTAL ITERATIONS

 MAXIMUM HEAD CHANGE FOR EACH ITERATION (1 INDICATES THE FIRST INNER ITERATION):

    HEAD CHANGE    HEAD CHANGE    HEAD CHANGE    HEAD CHANGE    HEAD CHANGE 
   LAYER,ROW,COL  LAYER,ROW,COL  LAYER,ROW,COL  LAYER,ROW,COL  LAYER,ROW,COL
 ---------------------------------------------------------------------------
  1 -0.7036      0  0.4103      0 -0.2693      0 -0.2399      0 -0.1609    
   (  5, 43,  5)  (  5, 39,  1)  (  5, 35,  1)  (  5, 39,  1)  (  5, 31,  2)
  0  0.1303      0 -0.1012      0  0.7159E-01  0 -0.6323E-01  0  0.4786E-01
   (  5, 37,  1)  (  5, 35,  2)  (  5, 40,  1)  (  5, 37,  1)  (  5, 40,  5)
  0 -0.3222E-01  0  0.2338E-01  0  0.1681E-01  0 -0.1331E-01  0  0.1158E-01
   (  5, 37,  5)  (  5, 35,  5)  (  5, 42,  6)  (  5, 37,  8)  (  5, 35,  8)
  0  0.8522E-02  0 -0.5340E-02  0  0.3952E-02  0  0.4364E-02  0 -0.3401E-02
   (  5, 13,  1)  (  5, 13,  1)  (  5, 31,  8)  (  5, 36,  1)  (  5, 33,  1)
  0  0.1515E-02  0 -0.1816E-02  0 -0.9488E-03  0 -0.9002E-03  0 -0.5909E-03
   (  5, 28,  1)  (  5, 25,  1)  (  5, 40,  1)  (  5, 36,  1)  (  5, 33,  6)
  0 -0.5879E-03  0  0.3538E-03  0 -0.3432E-03  0  0.2265E-03  0 -0.1565E-03
   (  5, 37,  1)  (  5, 40,  2)  (  5, 35,  6)  (  5, 33,  6)  (  5, 32,  7)
  1  0.2316E-02  0 -0.1353E-02  0  0.1186E-02  0  0.8548E-03  0 -0.7018E-03
   (  5, 12,  1)  (  5, 36,  1)  (  5, 32,  1)  (  5, 39,  1)  (  5, 38,  1)
  0  0.4964E-03  0  0.3555E-03  0 -0.3369E-03  0  0.2449E-03  0 -0.2729E-03
   (  5, 36,  1)  (  5, 27,  2)  (  5, 22,  1)  (  5, 19,  1)  (  5, 13,  1)
  0  0.2358E-03  0 -0.1150E-03  0  0.6416E-04  0  0.6049E-04  0  0.3540E-04
   (  5, 14,  1)  (  5, 15,  1)  (  5, 34,  7)  (  5, 13,  1)  (  5, 26, 10)
  0  0.2690E-04  0 -0.2621E-04  0  0.2445E-04  0 -0.1316E-04  0  0.8448E-05
   (  5, 31,  8)  (  5, 33,  1)  (  5, 29,  1)  (  5, 25, 12)  (  5, 40,  1)
  0 -0.6549E-05  0 -0.5919E-05  0 -0.4364E-05  0  0.3820E-05  0 -0.2463E-05
   (  5, 34,  6)  (  5, 26,  3)  (  5, 36,  2)  (  5, 35,  1)  (  5, 36,  5)
  0  0.1770E-05  0 -0.1636E-05  0  0.1604E-05  0 -0.8776E-06  1 -0.1303E-04
   (  5, 38,  4)  (  5, 38,  2)  (  5, 39,  1)  (  5, 41,  1)  (  5, 32,  1)
  0  0.1545E-04  0 -0.5853E-05  0 -0.3313E-05  0 -0.3346E-05  0 -0.2944E-05
   (  5, 30,  1)  (  5, 38,  6)  (  5, 26,  2)  (  5, 34,  1)  (  5, 15,  1)
  0 -0.1805E-05  0 -0.1569E-05  0 -0.1546E-05  0 -0.1206E-05  0  0.1138E-05
   (  5, 38,  1)  (  5, 37,  5)  (  5, 29,  1)  (  5, 37,  1)  (  5, 40,  1)
  0 -0.5450E-06  1  0.3585E-06
   (  5, 39,  1)  (  5, 31,  5)

 MAXIMUM RESIDUAL FOR EACH ITERATION (1 INDICATES THE FIRST INNER ITERATION):

    RESIDUAL       RESIDUAL       RESIDUAL       RESIDUAL       RESIDUAL    
   LAYER,ROW,COL  LAYER,ROW,COL  LAYER,ROW,COL  LAYER,ROW,COL  LAYER,ROW,COL
 ---------------------------------------------------------------------------
  1  0.1890E-02  0  0.1621E-02  0  0.1273E-02  0  0.9655E-03  0  0.7782E-03
   (  4, 35, 35)  (  4, 35, 35)  (  4, 35, 35)  (  3, 40, 27)  (  3, 40, 27)
  0 -0.6686E-03  0 -0.5646E-03  0 -0.4839E-03  0 -0.3885E-03  0 -0.3027E-03
   (  4, 43,  5)  (  4, 43,  4)  (  4, 43,  4)  (  4, 43,  4)  (  4, 43,  4)
  0 -0.2268E-03  0 -0.1757E-03  0 -0.1354E-03  0 -0.1008E-03  0 -0.7498E-04
   (  4, 43,  4)  (  4, 44,  2)  (  4, 44,  2)  (  4, 44,  2)  (  4, 44,  2)
  0 -0.5223E-04  0 -0.4052E-04  0 -0.3091E-04  0 -0.2623E-04  0 -0.2150E-04
   (  4, 44,  2)  (  4, 34, 35)  (  4, 34, 35)  (  4, 34, 35)  (  4, 34, 35)
  0 -0.1827E-04  0 -0.1444E-04  0 -0.1036E-04  0 -0.7081E-05  0 -0.5154E-05
   (  4, 34, 35)  (  4, 34, 35)  (  4, 34, 35)  (  4, 34, 35)  (  4, 34, 35)
  0 -0.4184E-05  0  0.3041E-05  0  0.2151E-05  0  0.1451E-05  0  0.9914E-06
   (  4, 34, 35)  (  4, 35, 35)  (  4, 35, 35)  (  4, 35, 35)  (  4, 35, 35)
  1  0.3636E-05  0  0.2288E-05  0 -0.1572E-05  0 -0.1374E-05  0 -0.1204E-05
   (  5, 13,  2)  (  5, 15,  2)  (  3, 44,  1)  (  3, 44,  1)  (  3, 44,  1)
  0 -0.1024E-05  0 -0.8799E-06  0 -0.6917E-06  0 -0.5312E-06  0 -0.4548E-06
   (  3, 44,  1)  (  3, 44,  1)  (  3, 44,  1)  (  3, 44,  1)  (  5, 34, 35)
  0 -0.3448E-06  0 -0.3325E-06  0 -0.2533E-06  0 -0.1607E-06  0  0.7789E-07
   (  4, 34, 35)  (  4, 34, 35)  (  4, 34, 35)  (  4, 34, 35)  (  4, 41,  1)
  0  0.5541E-07  0  0.4691E-07  0 -0.4156E-07  0 -0.3128E-07  0 -0.2264E-07
   (  4, 41,  1)  (  2, 44,  1)  (  3, 35, 34)  (  3, 35, 34)  (  4, 42,  2)
  0 -0.1735E-07  0 -0.1477E-07  0 -0.1167E-07  0 -0.8943E-08  0 -0.6480E-08
   (  4, 43,  2)  (  4, 43,  2)  (  4, 43,  2)  (  3, 44,  2)  (  3, 44,  2)
  0 -0.4924E-08  0  0.4025E-08  0  0.3085E-08  0  0.2284E-08  1  0.2874E-07
   (  3, 44,  2)  (  4, 42,  2)  (  4, 42,  2)  (  4, 42,  2)  (  2, 44,  1)
  0  0.1635E-07  0 -0.1203E-07  0 -0.1032E-07  0 -0.8976E-08  0 -0.7578E-08
   (  2, 44,  1)  (  3, 44,  1)  (  3, 44,  1)  (  3, 44,  1)  (  3, 44,  1)
  0 -0.6291E-08  0 -0.4650E-08  0 -0.3352E-08  0 -0.2438E-08  0 -0.2184E-08
   (  3, 44,  1)  (  3, 44,  1)  (  3, 44,  1)  (  3, 44,  1)  (  4, 34, 35)
  0 -0.2074E-08  1 -0.1812E-08
   (  4, 34, 35)  (  4, 34, 35)



 OUTPUT CONTROL FOR STRESS PERIOD    5   TIME STEP    4
    SAVE HEAD FOR ALL LAYERS
    SAVE DRAWDOWN FOR ALL LAYERS
    SAVE BUDGET
    PRINT BUDGET
 UBDSV1 SAVING "         STORAGE" ON UNIT   9 AT TIME STEP  4, STRESS PERIOD   5
 UBDSV2 SAVING "   CONSTANT HEAD" ON UNIT   9 AT TIME STEP  4, STRESS PERIOD   5
 UBDSV1 SAVING "FLOW RIGHT FACE " ON UNIT   9 AT TIME STEP  4, STRESS PERIOD   5
 UBDSV1 SAVING "FLOW FRONT FACE " ON UNIT   9 AT TIME STEP  4, STRESS PERIOD   5
 UBDSV1 SAVING "FLOW LOWER FACE " ON UNIT   9 AT TIME STEP  4, STRESS PERIOD   5
 UBDSV3 SAVING "        RECHARGE" ON UNIT   9 AT TIME STEP  4, STRESS PERIOD   5

 HEAD WILL BE SAVED ON UNIT   37 AT END OF TIME STEP    4, STRESS PERIOD    5

 DRAWDOWN WILL BE SAVED ON UNIT   38 AT END OF TIME STEP    4, STRESS PERIOD    5
1
  VOLUMETRIC BUDGET FOR ENTIRE MODEL AT END OF TIME STEP    4, STRESS PERIOD   5
  ------------------------------------------------------------------------------

     CUMULATIVE VOLUMES      L**3       RATES FOR THIS TIME STEP      L**3/T
     ------------------                 ------------------------

           IN:                                      IN:
           ---                                      ---
             STORAGE =        3722.0166               STORAGE =       8.6633E-03
       CONSTANT HEAD =         568.0421         CONSTANT HEAD =       1.1472E-03
            RECHARGE =          70.5915              RECHARGE =       1.0213E-04

            TOTAL IN =        4360.6499              TOTAL IN =       9.9127E-03

          OUT:                                     OUT:
          ----                                     ----
             STORAGE =           0.0000               STORAGE =           0.0000
       CONSTANT HEAD =        4360.7285         CONSTANT HEAD =       9.9128E-03
            RECHARGE =           0.0000              RECHARGE =           0.0000

           TOTAL OUT =        4360.7285             TOTAL OUT =       9.9128E-03

            IN - OUT =      -7.8613E-02              IN - OUT =      -1.1362E-07

 PERCENT DISCREPANCY =          -0.00     PERCENT DISCREPANCY =          -0.00






         TIME SUMMARY AT END OF TIME STEP    4 IN STRESS PERIOD    5
                    SECONDS     MINUTES      HOURS       DAYS        YEARS
                    -----------------------------------------------------------
   TIME STEP LENGTH  86400.      1440.0      24.000      1.0000     2.73785E-03
 STRESS PERIOD TIME 3.45600E+05  5760.0      96.000      4.0000     1.09514E-02
         TOTAL TIME 6.91200E+05  11520.      192.00      8.0000     2.19028E-02
1
1
                            STRESS PERIOD NO.    6, LENGTH =   86400.00    
                            -----------------------------------------------

                              NUMBER OF TIME STEPS =     1

                               MULTIPLIER FOR DELT =     1.000

                            INITIAL TIME STEP SIZE =   86400.00    

 REUSING RECH FROM LAST STRESS PERIOD

 CHD NO.   LAYER   ROW   COL    START HEAD        END HEAD         IFACE           
 ----------------------------------------------------------------------------------
      1      4      3      1       109.9           109.8           0.000    
      2      5      3      1       109.9           109.8           0.000    
      3      4      3      2       109.9           109.8           0.000    
      4      5      3      2       109.9           109.8           0.000    
      5      4      3      3       109.9           109.8           0.000    
      6      5      3      3       109.9           109.8           0.000    
      7      4      3      4       109.9           109.8           0.000    
      8      5      3      4       109.9           109.8           0.000    
      9      4      3      5       109.9           109.8           0.000    
     10      5      3      5       109.9           109.8           0.000    
     11      4      3      6       109.9           109.8           0.000    
     12      5      3      6       109.9           109.8           0.000    
     13      4      3      7       109.9           109.8           0.000    
     14      5      3      7       109.9           109.8           0.000    
     15      4      3      8       109.9           109.8           0.000    
     16      5      3      8       109.9           109.8           0.000    
     17      4      2      8       109.9           109.8           0.000    
     18      5      2      8       109.9           109.8           0.000    
     19      4      2      9       109.9           109.8           0.000    
     20      5      2      9       109.9           109.8           0.000    
     21      4      2     10       109.9           109.8           0.000    
     22      5      2     10       109.9           109.8           0.000    
     23      4      2     11       109.9           109.8           0.000    
     24      5      2     11       109.9           109.8           0.000    
     25      4      2     12       109.9           109.8           0.000    
     26      5      2     12       109.9           109.8           0.000    
     27      4      2     13       109.9           109.8           0.000    
     28      5      2     13       109.9           109.8           0.000    
     29      4      2     14       109.9           109.8           0.000    
     30      5      2     14       109.9           109.8           0.000    
     31      4      2     15       109.9           109.8           0.000    
     32      5      2     15       109.9           109.8           0.000    
     33      4      2     16       109.9           109.8           0.000    
     34      5      2     16       109.9           109.8           0.000    
     35      4      2     17       109.9           109.8           0.000    
     36      5      2     17       109.9           109.8           0.000    
     37      4      2     18       109.9           109.8           0.000    
     38      5      2     18       109.9           109.8           0.000    
     39      4      2     19       109.9           109.8           0.000    
     40      5      2     19       109.9           109.8           0.000    
     41      4      2     20       109.9           109.8           0.000    
     42      5      2     20       109.9           109.8           0.000    
     43      4      2     21       109.9           109.8           0.000    
     44      5      2     21       109.9           109.8           0.000    
     45      4      2     22       109.9           109.8           0.000    
     46      5      2     22       109.9           109.8           0.000    
     47      4      2     23       109.9           109.8           0.000    
     48      5      2     23       109.9           109.8           0.000    
     49      4      2     24       109.9           109.8           0.000    
     50      5      2     24       109.9           109.8           0.000    
     51      4      2     25       109.9           109.8           0.000    
     52      5      2     25       109.9           109.8           0.000    
     53      4      2     26       109.9           109.8           0.000    
     54      5      2     26       109.9           109.8           0.000    
     55      4      1     26       109.9           109.8           0.000    
     56      5      1     26       109.9           109.8           0.000    
     57      4      1     27       109.9           109.8           0.000    
     58      5      1     27       109.9           109.8           0.000    
     59      4      1     28       109.9           109.8           0.000    
     60      5      1     28       109.9           109.8           0.000    
     61      4      1     29       109.9           109.8           0.000    
     62      5      1     29       109.9           109.8           0.000    
     63      4      1     30       109.9           109.8           0.000    
     64      5      1     30       109.9           109.8           0.000    
     65      4      1     31       109.9           109.8           0.000    
     66      5      1     31       109.9           109.8           0.000    
     67      4      1     32       109.9           109.8           0.000    
     68      5      1     32       109.9           109.8           0.000    
     69      4      1     33       109.9           109.8           0.000    
     70      5      1     33       109.9           109.8           0.000    
     71      4      1     34       109.9           109.8           0.000    
     72      5      1     34       109.9           109.8           0.000    
     73      4      1     35       109.9           109.8           0.000    
     74      5      1     35       109.9           109.8           0.000    
     75      4     36     35       109.5           109.4           0.000    
     76      5     36     35       109.5           109.4           0.000    
     77      4     35     34       109.5           109.4           0.000    
     78      5     35     34       109.5           109.4           0.000    
     79      4     36     34       109.5           109.4           0.000    
     80      5     36     34       109.5           109.4           0.000    
     81      4     36     33       109.5           109.4           0.000    
     82      5     36     33       109.5           109.4           0.000    
     83      4     36     32       109.5           109.4           0.000    
     84      5     36     32       109.5           109.4           0.000    
     85      4     37     32       109.5           109.4           0.000    
     86      5     37     32       109.5           109.4           0.000    
     87      4     37     31       109.5           109.4           0.000    
     88      5     37     31       109.5           109.4           0.000    
     89      4     38     31       109.5           109.4           0.000    
     90      5     38     31       109.5           109.4           0.000    
     91      4     38     30       109.5           109.4           0.000    
     92      5     38     30       109.5           109.4           0.000    
     93      4     39     30       109.5           109.4           0.000    
     94      5     39     30       109.5           109.4           0.000    
     95      4     39     29       109.5           109.4           0.000    
     96      5     39     29       109.5           109.4           0.000    
     97      4     40     29       109.5           109.4           0.000    
     98      5     40     29       109.5           109.4           0.000    
     99      4     40     28       109.4           109.4           0.000    
    100      5     40     28       109.4           109.4           0.000    
    101      4     40     27       109.4           109.4           0.000    
    102      5     40     27       109.4           109.4           0.000    
    103      4     41     27       109.4           109.4           0.000    
    104      5     41     27       109.4           109.4           0.000    
    105      4     41     26       109.4           109.4           0.000    
    106      5     41     26       109.4           109.4           0.000    
    107      4     41     25       109.4           109.4           0.000    
    108      5     41     25       109.4           109.4           0.000    
    109      4     41     24       109.4           109.4           0.000    
    110      5     41     24       109.4           109.4           0.000    
    111      4     41     23       109.4           109.4           0.000    
    112      5     41     23       109.4           109.4           0.000    
    113      4     41     22       109.4           109.4           0.000    
    114      5     41     22       109.4           109.4           0.000    
    115      4     42     22       109.4           109.4           0.000    
    116      5     42     22       109.4           109.4           0.000    
    117      4     42     21       109.4           109.4           0.000    
    118      5     42     21       109.4           109.4           0.000    
    119      4     42     20       109.4           109.4           0.000    
    120      5     42     20       109.4           109.4           0.000    
    121      4     42     19       109.4           109.4           0.000    
    122      5     42     19       109.4           109.4           0.000    
    123      4     43     18       109.4           109.4           0.000    
    124      5     43     18       109.4           109.4           0.000    
    125      4     42     18       109.4           109.4           0.000    
    126      5     42     18       109.4           109.4           0.000    
    127      4     42     17       109.4           109.4           0.000    
    128      5     42     17       109.4           109.4           0.000    
    129      4     42     16       109.4           109.4           0.000    
    130      5     42     16       109.4           109.4           0.000    
    131      4     42     15       109.4           109.4           0.000    
    132      5     42     15       109.4           109.4           0.000    
    133      4     43     15       109.4           109.4           0.000    
    134      5     43     15       109.4           109.4           0.000    
    135      4     43     14       109.4           109.4           0.000    
    136      5     43     14       109.4           109.4           0.000    
    137      4     43     13       109.4           109.4           0.000    
    138      5     43     13       109.4           109.4           0.000    
    139      4     43     12       109.4           109.4           0.000    
    140      5     43     12       109.4           109.4           0.000    
    141      4     43     11       109.4           109.4           0.000    
    142      5     43     11       109.4           109.4           0.000    
    143      4     43     10       109.4           109.4           0.000    
    144      5     43     10       109.4           109.4           0.000    
    145      4     44     10       109.4           109.4           0.000    
    146      5     44     10       109.4           109.4           0.000    
    147      4     44      9       109.4           109.4           0.000    
    148      5     44      9       109.4           109.4           0.000    
    149      4     44      8       109.4           109.4           0.000    
    150      5     44      8       109.4           109.4           0.000    
    151      4     44      7       109.4           109.4           0.000    
    152      5     44      7       109.4           109.4           0.000    
    153      4     44      6       109.4           109.4           0.000    
    154      5     44      6       109.4           109.4           0.000    
    155      4     44      5       109.4           109.4           0.000    
    156      5     44      5       109.4           109.4           0.000    
    157      4     44      4       109.4           109.4           0.000    
    158      5     44      4       109.4           109.4           0.000    
    159      4     44      3       109.4           109.4           0.000    
    160      5     44      3       109.4           109.4           0.000    
    161      4     45      3       109.4           109.4           0.000    
    162      5     45      3       109.4           109.4           0.000    
    163      4     45      2       109.4           109.4           0.000    
    164      5     45      2       109.4           109.4           0.000    
    165      4     45      1       109.4           109.3           0.000    
    166      5     45      1       109.4           109.3           0.000    


    166 TIME-VARIANT SPECIFIED-HEAD CELLS

 SOLVING FOR HEAD 


     4 CALLS TO PCG ROUTINE FOR TIME STEP   1 IN STRESS PERIOD    6
    61 TOTAL ITERATIONS

 MAXIMUM HEAD CHANGE FOR EACH ITERATION (1 INDICATES THE FIRST INNER ITERATION):

    HEAD CHANGE    HEAD CHANGE    HEAD CHANGE    HEAD CHANGE    HEAD CHANGE 
   LAYER,ROW,COL  LAYER,ROW,COL  LAYER,ROW,COL  LAYER,ROW,COL  LAYER,ROW,COL
 ---------------------------------------------------------------------------
  1 -0.2736      0  0.1613      0 -0.1139      0 -0.1094      0 -0.7579E-01
   (  5, 43,  5)  (  5, 38,  1)  (  5, 33,  1)  (  5, 38,  1)  (  5, 40,  1)
  0  0.5502E-01  0  0.4296E-01  0  0.3137E-01  0  0.2657E-01  0 -0.2192E-01
   (  5, 37,  1)  (  5, 39,  1)  (  5, 36,  5)  (  5, 39,  5)  (  5, 36,  5)
  0 -0.1244E-01  0  0.9992E-02  0 -0.9550E-02  0  0.8288E-02  0 -0.5306E-02
   (  5, 38,  5)  (  5, 35,  5)  (  5, 35,  8)  (  5, 33,  8)  (  5, 13,  1)
  0  0.3886E-02  0  0.2086E-02  0 -0.1863E-02  0  0.1227E-02  0  0.8638E-03
   (  5, 13,  1)  (  5, 30,  8)  (  5, 31,  1)  (  5, 36,  1)  (  5, 28, 11)
  0  0.7652E-03  0 -0.7196E-03  0  0.3971E-03  0 -0.2951E-03  0  0.2827E-03
   (  5, 37,  1)  (  5, 35,  1)  (  5, 23,  9)  (  5, 36,  1)  (  5, 39,  2)
  0 -0.2630E-03  0 -0.1654E-03  0  0.7756E-04  0 -0.8785E-04  0 -0.5297E-04
   (  5, 37,  1)  (  5, 34,  6)  (  5, 12,  2)  (  5, 12,  2)  (  5, 15,  2)
  1  0.9047E-03  0  0.7224E-03  0 -0.4773E-03  0  0.3164E-03  0 -0.1302E-03
   (  5, 15,  1)  (  5, 38,  1)  (  5, 32,  1)  (  5, 32,  2)  (  5, 22, 14)
  0 -0.1213E-03  0  0.1174E-03  0  0.1174E-03  0 -0.1007E-03  0 -0.6742E-04
   (  5, 13,  1)  (  5, 35,  1)  (  5, 13,  1)  (  5, 14,  1)  (  5, 26,  5)
  0  0.6187E-04  0 -0.6022E-04  0  0.3231E-04  0  0.2571E-04  0  0.1541E-04
   (  5, 38,  1)  (  5, 39,  1)  (  5, 39,  1)  (  5, 12,  1)  (  5, 32,  7)
  0 -0.7991E-05  0  0.8090E-05  0  0.7391E-05  0 -0.6810E-05  0  0.3937E-05
   (  5, 25,  9)  (  5, 13,  1)  (  5, 34,  1)  (  5, 30,  1)  (  5, 31,  1)
  0 -0.2921E-05  0 -0.1871E-05  0  0.1921E-05  0 -0.1303E-05  0  0.9858E-06
   (  5, 13,  2)  (  5, 39,  4)  (  5, 35,  1)  (  5, 12,  1)  (  5, 40,  5)
  1 -0.2242E-05  0  0.2358E-05  0  0.1980E-05  0  0.1409E-05  0  0.8861E-06
   (  5, 41,  5)  (  5, 12,  2)  (  5, 31,  1)  (  5, 15,  1)  (  5, 34,  1)
  1 -0.6978E-06
   (  5, 32,  1)

 MAXIMUM RESIDUAL FOR EACH ITERATION (1 INDICATES THE FIRST INNER ITERATION):

    RESIDUAL       RESIDUAL       RESIDUAL       RESIDUAL       RESIDUAL    
   LAYER,ROW,COL  LAYER,ROW,COL  LAYER,ROW,COL  LAYER,ROW,COL  LAYER,ROW,COL
 ---------------------------------------------------------------------------
  1  0.7204E-03  0  0.6339E-03  0  0.5004E-03  0  0.3636E-03  0 -0.3065E-03
   (  4, 35, 35)  (  4, 35, 35)  (  4, 35, 35)  (  4, 35, 35)  (  4, 43,  6)
  0 -0.2737E-03  0 -0.2296E-03  0 -0.1923E-03  0 -0.1554E-03  0 -0.1238E-03
   (  4, 43,  5)  (  4, 43,  4)  (  4, 43,  4)  (  4, 43,  4)  (  4, 43,  4)
  0 -0.9400E-04  0 -0.7573E-04  0 -0.5889E-04  0 -0.4394E-04  0 -0.3258E-04
   (  4, 43,  4)  (  4, 44,  2)  (  4, 44,  2)  (  4, 44,  2)  (  4, 44,  2)
  0 -0.2349E-04  0 -0.1745E-04  0 -0.1486E-04  0 -0.9927E-05  0 -0.6728E-05
   (  4, 44,  2)  (  4, 44,  2)  (  4, 44,  2)  (  4, 44,  2)  (  4, 34, 35)
  0 -0.5315E-05  0 -0.4283E-05  0 -0.3032E-05  0 -0.2279E-05  0 -0.1875E-05
   (  4, 34, 35)  (  4, 34, 35)  (  4, 34, 35)  (  4, 43,  3)  (  4, 43,  3)
  0  0.1490E-05  0  0.1054E-05  0  0.7184E-06  0  0.4630E-06  0  0.3191E-06
   (  4, 35, 35)  (  4, 35, 35)  (  4, 35, 35)  (  4, 35, 35)  (  4, 42,  3)
  1  0.2081E-05  0  0.1073E-05  0 -0.3961E-06  0 -0.3208E-06  0 -0.2772E-06
   (  5, 15,  2)  (  5, 15,  2)  (  4, 13,  1)  (  3, 41,  2)  (  3, 41,  2)
  0 -0.2389E-06  0 -0.2485E-06  0 -0.1586E-06  0  0.1264E-06  0 -0.1116E-06
   (  3, 43,  1)  (  5, 13,  1)  (  3, 43,  1)  (  5,  4, 16)  (  5, 34, 35)
  0 -0.8770E-07  0  0.9474E-07  0 -0.8124E-07  0 -0.5708E-07  0 -0.2630E-07
   (  4, 33, 35)  (  5, 14,  2)  (  4, 34, 35)  (  4, 34, 35)  (  4, 34, 35)
  0  0.2147E-07  0  0.2036E-07  0  0.1170E-07  0  0.1073E-07  0  0.9253E-08
   (  4, 14,  2)  (  5, 13,  1)  (  5, 13,  1)  (  4, 34, 35)  (  4, 13,  2)
  0 -0.5395E-08  0  0.3323E-08  0 -0.3755E-08  0  0.2608E-08  0  0.1880E-08
   (  4, 13,  2)  (  5, 13,  1)  (  4, 14,  1)  (  5, 15,  1)  (  5, 13,  4)
  1 -0.6474E-08  0 -0.3921E-08  0 -0.3352E-08  0  0.1925E-08  0  0.1707E-08
   (  5, 13,  4)  (  4, 14,  1)  (  4, 14,  1)  (  5, 15,  1)  (  5, 15,  1)
  1 -0.1530E-08
   (  3, 44,  1)



 OUTPUT CONTROL FOR STRESS PERIOD    6   TIME STEP    1
    SAVE HEAD FOR ALL LAYERS
    SAVE DRAWDOWN FOR ALL LAYERS
    SAVE BUDGET
    PRINT BUDGET
 UBDSV1 SAVING "         STORAGE" ON UNIT   9 AT TIME STEP  1, STRESS PERIOD   6
 UBDSV2 SAVING "   CONSTANT HEAD" ON UNIT   9 AT TIME STEP  1, STRESS PERIOD   6
 UBDSV1 SAVING "FLOW RIGHT FACE " ON UNIT   9 AT TIME STEP  1, STRESS PERIOD   6
 UBDSV1 SAVING "FLOW FRONT FACE " ON UNIT   9 AT TIME STEP  1, STRESS PERIOD   6
 UBDSV1 SAVING "FLOW LOWER FACE " ON UNIT   9 AT TIME STEP  1, STRESS PERIOD   6
 UBDSV3 SAVING "        RECHARGE" ON UNIT   9 AT TIME STEP  1, STRESS PERIOD   6

 HEAD WILL BE SAVED ON UNIT   37 AT END OF TIME STEP    1, STRESS PERIOD    6

 DRAWDOWN WILL BE SAVED ON UNIT   38 AT END OF TIME STEP    1, STRESS PERIOD    6
1
  VOLUMETRIC BUDGET FOR ENTIRE MODEL AT END OF TIME STEP    1, STRESS PERIOD   6
  ------------------------------------------------------------------------------

     CUMULATIVE VOLUMES      L**3       RATES FOR THIS TIME STEP      L**3/T
     ------------------                 ------------------------

           IN:                                      IN:
           ---                                      ---
             STORAGE =        4171.8545               STORAGE =       5.2065E-03
       CONSTANT HEAD =         765.8015         CONSTANT HEAD =       2.2889E-03
            RECHARGE =          79.4154              RECHARGE =       1.0213E-04

            TOTAL IN =        5017.0713              TOTAL IN =       7.5975E-03

          OUT:                                     OUT:
          ----                                     ----
             STORAGE =           0.0000               STORAGE =           0.0000
       CONSTANT HEAD =        5017.1611         CONSTANT HEAD =       7.5976E-03
            RECHARGE =           0.0000              RECHARGE =           0.0000

           TOTAL OUT =        5017.1611             TOTAL OUT =       7.5976E-03

            IN - OUT =      -8.9844E-02              IN - OUT =      -1.3411E-07

 PERCENT DISCREPANCY =          -0.00     PERCENT DISCREPANCY =          -0.00






         TIME SUMMARY AT END OF TIME STEP    1 IN STRESS PERIOD    6
                    SECONDS     MINUTES      HOURS       DAYS        YEARS
                    -----------------------------------------------------------
   TIME STEP LENGTH  86400.      1440.0      24.000      1.0000     2.73785E-03
 STRESS PERIOD TIME  86400.      1440.0      24.000      1.0000     2.73785E-03
         TOTAL TIME 7.77600E+05  12960.      216.00      9.0000     2.46407E-02
1
1
                            STRESS PERIOD NO.    7, LENGTH =   86400.00    
                            -----------------------------------------------

                              NUMBER OF TIME STEPS =     1

                               MULTIPLIER FOR DELT =     1.000

                            INITIAL TIME STEP SIZE =   86400.00    

 REUSING RECH FROM LAST STRESS PERIOD

 CHD NO.   LAYER   ROW   COL    START HEAD        END HEAD         IFACE           
 ----------------------------------------------------------------------------------
      1      4      3      1       109.8           109.7           0.000    
      2      5      3      1       109.8           109.7           0.000    
      3      4      3      2       109.8           109.7           0.000    
      4      5      3      2       109.8           109.7           0.000    
      5      4      3      3       109.8           109.7           0.000    
      6      5      3      3       109.8           109.7           0.000    
      7      4      3      4       109.8           109.7           0.000    
      8      5      3      4       109.8           109.7           0.000    
      9      4      3      5       109.8           109.7           0.000    
     10      5      3      5       109.8           109.7           0.000    
     11      4      3      6       109.8           109.7           0.000    
     12      5      3      6       109.8           109.7           0.000    
     13      4      3      7       109.8           109.7           0.000    
     14      5      3      7       109.8           109.7           0.000    
     15      4      3      8       109.8           109.7           0.000    
     16      5      3      8       109.8           109.7           0.000    
     17      4      2      8       109.8           109.7           0.000    
     18      5      2      8       109.8           109.7           0.000    
     19      4      2      9       109.8           109.7           0.000    
     20      5      2      9       109.8           109.7           0.000    
     21      4      2     10       109.8           109.7           0.000    
     22      5      2     10       109.8           109.7           0.000    
     23      4      2     11       109.8           109.7           0.000    
     24      5      2     11       109.8           109.7           0.000    
     25      4      2     12       109.8           109.7           0.000    
     26      5      2     12       109.8           109.7           0.000    
     27      4      2     13       109.8           109.7           0.000    
     28      5      2     13       109.8           109.7           0.000    
     29      4      2     14       109.8           109.7           0.000    
     30      5      2     14       109.8           109.7           0.000    
     31      4      2     15       109.8           109.7           0.000    
     32      5      2     15       109.8           109.7           0.000    
     33      4      2     16       109.8           109.7           0.000    
     34      5      2     16       109.8           109.7           0.000    
     35      4      2     17       109.8           109.7           0.000    
     36      5      2     17       109.8           109.7           0.000    
     37      4      2     18       109.8           109.7           0.000    
     38      5      2     18       109.8           109.7           0.000    
     39      4      2     19       109.8           109.7           0.000    
     40      5      2     19       109.8           109.7           0.000    
     41      4      2     20       109.8           109.7           0.000    
     42      5      2     20       109.8           109.7           0.000    
     43      4      2     21       109.8           109.7           0.000    
     44      5      2     21       109.8           109.7           0.000    
     45      4      2     22       109.8           109.7           0.000    
     46      5      2     22       109.8           109.7           0.000    
     47      4      2     23       109.8           109.7           0.000    
     48      5      2     23       109.8           109.7           0.000    
     49      4      2     24       109.8           109.7           0.000    
     50      5      2     24       109.8           109.7           0.000    
     51      4      2     25       109.8           109.7           0.000    
     52      5      2     25       109.8           109.7           0.000    
     53      4      2     26       109.8           109.7           0.000    
     54      5      2     26       109.8           109.7           0.000    
     55      4      1     26       109.8           109.7           0.000    
     56      5      1     26       109.8           109.7           0.000    
     57      4      1     27       109.8           109.7           0.000    
     58      5      1     27       109.8           109.7           0.000    
     59      4      1     28       109.8           109.7           0.000    
     60      5      1     28       109.8           109.7           0.000    
     61      4      1     29       109.8           109.7           0.000    
     62      5      1     29       109.8           109.7           0.000    
     63      4      1     30       109.8           109.7           0.000    
     64      5      1     30       109.8           109.7           0.000    
     65      4      1     31       109.8           109.7           0.000    
     66      5      1     31       109.8           109.7           0.000    
     67      4      1     32       109.8           109.7           0.000    
     68      5      1     32       109.8           109.7           0.000    
     69      4      1     33       109.8           109.7           0.000    
     70      5      1     33       109.8           109.7           0.000    
     71      4      1     34       109.8           109.7           0.000    
     72      5      1     34       109.8           109.7           0.000    
     73      4      1     35       109.8           109.7           0.000    
     74      5      1     35       109.8           109.7           0.000    
     75      4     36     35       109.4           109.3           0.000    
     76      5     36     35       109.4           109.3           0.000    
     77      4     35     34       109.4           109.3           0.000    
     78      5     35     34       109.4           109.3           0.000    
     79      4     36     34       109.4           109.3           0.000    
     80      5     36     34       109.4           109.3           0.000    
     81      4     36     33       109.4           109.3           0.000    
     82      5     36     33       109.4           109.3           0.000    
     83      4     36     32       109.4           109.3           0.000    
     84      5     36     32       109.4           109.3           0.000    
     85      4     37     32       109.4           109.3           0.000    
     86      5     37     32       109.4           109.3           0.000    
     87      4     37     31       109.4           109.3           0.000    
     88      5     37     31       109.4           109.3           0.000    
     89      4     38     31       109.4           109.3           0.000    
     90      5     38     31       109.4           109.3           0.000    
     91      4     38     30       109.4           109.3           0.000    
     92      5     38     30       109.4           109.3           0.000    
     93      4     39     30       109.4           109.3           0.000    
     94      5     39     30       109.4           109.3           0.000    
     95      4     39     29       109.4           109.3           0.000    
     96      5     39     29       109.4           109.3           0.000    
     97      4     40     29       109.4           109.3           0.000    
     98      5     40     29       109.4           109.3           0.000    
     99      4     40     28       109.4           109.3           0.000    
    100      5     40     28       109.4           109.3           0.000    
    101      4     40     27       109.4           109.3           0.000    
    102      5     40     27       109.4           109.3           0.000    
    103      4     41     27       109.4           109.3           0.000    
    104      5     41     27       109.4           109.3           0.000    
    105      4     41     26       109.4           109.3           0.000    
    106      5     41     26       109.4           109.3           0.000    
    107      4     41     25       109.4           109.3           0.000    
    108      5     41     25       109.4           109.3           0.000    
    109      4     41     24       109.4           109.3           0.000    
    110      5     41     24       109.4           109.3           0.000    
    111      4     41     23       109.4           109.3           0.000    
    112      5     41     23       109.4           109.3           0.000    
    113      4     41     22       109.4           109.3           0.000    
    114      5     41     22       109.4           109.3           0.000    
    115      4     42     22       109.4           109.3           0.000    
    116      5     42     22       109.4           109.3           0.000    
    117      4     42     21       109.4           109.3           0.000    
    118      5     42     21       109.4           109.3           0.000    
    119      4     42     20       109.4           109.3           0.000    
    120      5     42     20       109.4           109.3           0.000    
    121      4     42     19       109.4           109.3           0.000    
    122      5     42     19       109.4           109.3           0.000    
    123      4     43     18       109.4           109.3           0.000    
    124      5     43     18       109.4           109.3           0.000    
    125      4     42     18       109.4           109.3           0.000    
    126      5     42     18       109.4           109.3           0.000    
    127      4     42     17       109.4           109.3           0.000    
    128      5     42     17       109.4           109.3           0.000    
    129      4     42     16       109.4           109.3           0.000    
    130      5     42     16       109.4           109.3           0.000    
    131      4     42     15       109.4           109.3           0.000    
    132      5     42     15       109.4           109.3           0.000    
    133      4     43     15       109.4           109.3           0.000    
    134      5     43     15       109.4           109.3           0.000    
    135      4     43     14       109.4           109.3           0.000    
    136      5     43     14       109.4           109.3           0.000    
    137      4     43     13       109.4           109.3           0.000    
    138      5     43     13       109.4           109.3           0.000    
    139      4     43     12       109.4           109.3           0.000    
    140      5     43     12       109.4           109.3           0.000    
    141      4     43     11       109.4           109.3           0.000    
    142      5     43     11       109.4           109.3           0.000    
    143      4     43     10       109.4           109.3           0.000    
    144      5     43     10       109.4           109.3           0.000    
    145      4     44     10       109.4           109.3           0.000    
    146      5     44     10       109.4           109.3           0.000    
    147      4     44      9       109.4           109.3           0.000    
    148      5     44      9       109.4           109.3           0.000    
    149      4     44      8       109.4           109.3           0.000    
    150      5     44      8       109.4           109.3           0.000    
    151      4     44      7       109.4           109.3           0.000    
    152      5     44      7       109.4           109.3           0.000    
    153      4     44      6       109.4           109.3           0.000    
    154      5     44      6       109.4           109.3           0.000    
    155      4     44      5       109.4           109.3           0.000    
    156      5     44      5       109.4           109.3           0.000    
    157      4     44      4       109.4           109.3           0.000    
    158      5     44      4       109.4           109.3           0.000    
    159      4     44      3       109.4           109.3           0.000    
    160      5     44      3       109.4           109.3           0.000    
    161      4     45      3       109.4           109.3           0.000    
    162      5     45      3       109.4           109.3           0.000    
    163      4     45      2       109.4           109.3           0.000    
    164      5     45      2       109.4           109.3           0.000    
    165      4     45      1       109.3           109.3           0.000    
    166      5     45      1       109.3           109.3           0.000    


    166 TIME-VARIANT SPECIFIED-HEAD CELLS

 SOLVING FOR HEAD 

 CELL CONVERSIONS FOR ITER.=  2  LAYER=  2  STEP=  1  PERIOD=   7   (ROW,COL)
    DRY( 38,  1)   DRY( 38,  2)   DRY( 38,  3)   DRY( 39,  1)   DRY( 39,  2)   
    DRY( 39,  3)   DRY( 40,  1)   DRY( 40,  2)   DRY( 40,  3)   DRY( 41,  1)   
    DRY( 41,  2)   DRY( 41,  3)   DRY( 42,  1)   DRY( 42,  2)   DRY( 42,  3)   
    DRY( 43,  1)   DRY( 43,  2)   DRY( 44,  1)   DRY( 44,  2)   DRY( 45,  1)   


     4 CALLS TO PCG ROUTINE FOR TIME STEP   1 IN STRESS PERIOD    7
    68 TOTAL ITERATIONS

 MAXIMUM HEAD CHANGE FOR EACH ITERATION (1 INDICATES THE FIRST INNER ITERATION):

    HEAD CHANGE    HEAD CHANGE    HEAD CHANGE    HEAD CHANGE    HEAD CHANGE 
   LAYER,ROW,COL  LAYER,ROW,COL  LAYER,ROW,COL  LAYER,ROW,COL  LAYER,ROW,COL
 ---------------------------------------------------------------------------
  1 -0.3915      0  0.2364      0 -0.1664      0  0.1262      0 -0.8777E-01
   (  5, 43,  5)  (  5, 39,  1)  (  5, 35,  1)  (  5, 33,  2)  (  5, 30,  2)
  0  0.8832E-01  0  0.5072E-01  0  0.4181E-01  0  0.3515E-01  0  0.2571E-01
   (  5, 37,  1)  (  5, 39,  1)  (  5, 40,  1)  (  5, 39,  5)  (  5, 40,  5)
  0 -0.1860E-01  0  0.1383E-01  0 -0.9106E-02  0 -0.6461E-02  0  0.6201E-02
   (  5, 38,  5)  (  5, 35,  5)  (  5, 36,  8)  (  5, 37,  8)  (  5, 35,  8)
  0  0.4363E-02  0 -0.2579E-02  0 -0.2250E-02  0  0.1962E-02  0 -0.1144E-02
   (  5, 13,  1)  (  5, 13,  1)  (  5, 31,  1)  (  5, 36,  1)  (  5, 38,  4)
  0  0.1131E-02  0 -0.1114E-02  0 -0.5157E-03  0  0.4116E-03  0 -0.3450E-03
   (  5, 37,  1)  (  5, 35,  1)  (  5, 31,  7)  (  5, 32, 10)  (  5, 37,  1)
  0  0.2254E-03  0 -0.2451E-03  0 -0.1731E-03  0  0.1185E-03  0  0.7371E-04
   (  5, 39,  2)  (  5, 38,  1)  (  5, 35,  6)  (  5, 33,  6)  (  5, 37,  1)
  1 -0.1670E-02  0  0.1417E-02  0 -0.1302E-02  0 -0.1044E-02  0 -0.4972E-03
   (  5, 40,  2)  (  5, 35,  1)  (  5, 33,  2)  (  5, 36,  1)  (  5, 27,  2)
  0 -0.3764E-03  0 -0.2816E-03  0  0.2699E-03  0  0.2150E-03  0  0.1575E-03
   (  5, 40,  1)  (  5, 22,  2)  (  5, 39,  1)  (  5, 38,  5)  (  5, 39,  4)
  0 -0.1283E-03  0  0.8318E-04  0 -0.6826E-04  0  0.5951E-04  0 -0.4099E-04
   (  5, 37,  1)  (  5, 14,  1)  (  5, 40,  1)  (  5, 13,  1)  (  5, 13,  1)
  0 -0.2257E-04  0  0.2102E-04  0 -0.1826E-04  0 -0.1182E-04  0  0.8578E-05
   (  5, 37,  1)  (  5, 34,  1)  (  5, 35,  4)  (  5, 27,  8)  (  5, 36,  1)
  0 -0.5722E-05  0  0.5622E-05  0  0.3370E-05  0  0.2842E-05  0  0.1779E-05
   (  5, 35,  1)  (  5, 37,  1)  (  5, 32,  6)  (  5, 15,  1)  (  5, 39,  3)
  0 -0.1604E-05  0 -0.1264E-05  0  0.7264E-06  1  0.8875E-05  0 -0.8402E-05
   (  5, 38,  1)  (  5, 33,  6)  (  5, 12,  2)  (  5, 38,  2)  (  5, 35,  1)
  0  0.5664E-05  0 -0.3225E-05  0 -0.1766E-05  0  0.1362E-05  0 -0.1219E-05
   (  5, 32,  1)  (  5, 30,  2)  (  5, 33,  2)  (  5, 35,  5)  (  5, 41,  1)
  0 -0.1286E-05  0  0.7041E-06  1 -0.6039E-06
   (  5, 36,  5)  (  5, 33,  1)  (  5, 16,  1)

 MAXIMUM RESIDUAL FOR EACH ITERATION (1 INDICATES THE FIRST INNER ITERATION):

    RESIDUAL       RESIDUAL       RESIDUAL       RESIDUAL       RESIDUAL    
   LAYER,ROW,COL  LAYER,ROW,COL  LAYER,ROW,COL  LAYER,ROW,COL  LAYER,ROW,COL
 ---------------------------------------------------------------------------
  1  0.9017E-03  0  0.7718E-03  0  0.5946E-03  0 -0.4656E-03  0 -0.4361E-03
   (  4, 35, 35)  (  4, 35, 35)  (  4, 35, 35)  (  4, 43,  6)  (  4, 43,  6)
  0 -0.3831E-03  0 -0.3152E-03  0 -0.2599E-03  0 -0.2035E-03  0 -0.1544E-03
   (  4, 43,  5)  (  4, 43,  4)  (  4, 43,  4)  (  4, 43,  4)  (  4, 43,  4)
  0 -0.1247E-03  0 -0.9866E-04  0 -0.7358E-04  0 -0.5348E-04  0 -0.3876E-04
   (  4, 44,  2)  (  4, 44,  2)  (  4, 44,  2)  (  4, 44,  2)  (  4, 44,  2)
  0 -0.2671E-04  0 -0.1924E-04  0 -0.1651E-04  0 -0.1294E-04  0 -0.9625E-05
   (  4, 44,  2)  (  4, 44,  2)  (  4, 34, 35)  (  4, 34, 35)  (  4, 34, 35)
  0 -0.8243E-05  0 -0.6177E-05  0 -0.4333E-05  0 -0.2889E-05  0  0.2158E-05
   (  4, 34, 35)  (  4, 34, 35)  (  4, 34, 35)  (  4, 34, 35)  (  4, 35, 35)
  0  0.1869E-05  0  0.1357E-05  0  0.9066E-06  0  0.5754E-06  0  0.4133E-06
   (  4, 35, 35)  (  4, 35, 35)  (  4, 35, 35)  (  4, 35, 35)  (  4, 35, 35)
  1  0.3055E-05  0  0.2832E-05  0  0.2979E-05  0  0.2745E-05  0  0.2526E-05
   (  3, 42,  3)  (  4, 42,  1)  (  4, 42,  1)  (  4, 42,  1)  (  4, 43,  1)
  0  0.2198E-05  0  0.1739E-05  0  0.1391E-05  0  0.1091E-05  0  0.8229E-06
   (  4, 43,  1)  (  4, 44,  1)  (  4, 44,  1)  (  4, 44,  1)  (  4, 44,  1)
  0 -0.7235E-06  0 -0.6532E-06  0 -0.5286E-06  0 -0.3856E-06  0 -0.2614E-06
   (  4, 44,  2)  (  4, 44,  2)  (  4, 44,  2)  (  4, 44,  2)  (  4, 44,  2)
  0 -0.1630E-06  0 -0.1236E-06  0  0.8732E-07  0  0.8037E-07  0  0.6715E-07
   (  4, 44,  2)  (  4, 44,  2)  (  4, 43,  2)  (  4, 43,  2)  (  4, 43,  2)
  0  0.5913E-07  0  0.4322E-07  0  0.2862E-07  0 -0.1492E-07  0 -0.1280E-07
   (  4, 43,  2)  (  4, 43,  2)  (  4, 43,  2)  (  4, 43,  3)  (  4, 43,  3)
  0  0.1083E-07  0  0.8585E-08  0  0.5657E-08  1 -0.3046E-07  0 -0.1714E-07
   (  4, 41,  3)  (  4, 41,  3)  (  4, 41,  3)  (  3, 37,  1)  (  3, 37,  1)
  0  0.1087E-07  0  0.9564E-08  0  0.7551E-08  0 -0.6111E-08  0 -0.4928E-08
   (  4, 38,  3)  (  4, 40,  4)  (  4, 40,  4)  (  3, 43,  3)  (  3, 43,  3)
  0  0.4202E-08  0  0.3799E-08  1  0.3403E-08
   (  4, 42,  2)  (  4, 42,  2)  (  4, 42,  2)



 OUTPUT CONTROL FOR STRESS PERIOD    7   TIME STEP    1
    SAVE HEAD FOR ALL LAYERS
    SAVE DRAWDOWN FOR ALL LAYERS
    SAVE BUDGET
    PRINT BUDGET
 UBDSV1 SAVING "         STORAGE" ON UNIT   9 AT TIME STEP  1, STRESS PERIOD   7
 UBDSV2 SAVING "   CONSTANT HEAD" ON UNIT   9 AT TIME STEP  1, STRESS PERIOD   7
 UBDSV1 SAVING "FLOW RIGHT FACE " ON UNIT   9 AT TIME STEP  1, STRESS PERIOD   7
 UBDSV1 SAVING "FLOW FRONT FACE " ON UNIT   9 AT TIME STEP  1, STRESS PERIOD   7
 UBDSV1 SAVING "FLOW LOWER FACE " ON UNIT   9 AT TIME STEP  1, STRESS PERIOD   7
 UBDSV3 SAVING "        RECHARGE" ON UNIT   9 AT TIME STEP  1, STRESS PERIOD   7

 HEAD WILL BE SAVED ON UNIT   37 AT END OF TIME STEP    1, STRESS PERIOD    7

 DRAWDOWN WILL BE SAVED ON UNIT   38 AT END OF TIME STEP    1, STRESS PERIOD    7
1
  VOLUMETRIC BUDGET FOR ENTIRE MODEL AT END OF TIME STEP    1, STRESS PERIOD   7
  ------------------------------------------------------------------------------

     CUMULATIVE VOLUMES      L**3       RATES FOR THIS TIME STEP      L**3/T
     ------------------                 ------------------------

           IN:                                      IN:
           ---                                      ---
             STORAGE =        4624.6333               STORAGE =       5.2405E-03
       CONSTANT HEAD =         952.8762         CONSTANT HEAD =       2.1652E-03
            RECHARGE =          88.2394              RECHARGE =       1.0213E-04

            TOTAL IN =        5665.7485              TOTAL IN =       7.5078E-03

          OUT:                                     OUT:
          ----                                     ----
             STORAGE =           0.0000               STORAGE =           0.0000
       CONSTANT HEAD =        5665.8486         CONSTANT HEAD =       7.5080E-03
            RECHARGE =           0.0000              RECHARGE =           0.0000

           TOTAL OUT =        5665.8486             TOTAL OUT =       7.5080E-03

            IN - OUT =          -0.1001              IN - OUT =      -1.1642E-07

 PERCENT DISCREPANCY =          -0.00     PERCENT DISCREPANCY =          -0.00






         TIME SUMMARY AT END OF TIME STEP    1 IN STRESS PERIOD    7
                    SECONDS     MINUTES      HOURS       DAYS        YEARS
                    -----------------------------------------------------------
   TIME STEP LENGTH  86400.      1440.0      24.000      1.0000     2.73785E-03
 STRESS PERIOD TIME  86400.      1440.0      24.000      1.0000     2.73785E-03
         TOTAL TIME 8.64000E+05  14400.      240.00      10.000     2.73785E-02
1
1
                            STRESS PERIOD NO.    8, LENGTH =   86400.00    
                            -----------------------------------------------

                              NUMBER OF TIME STEPS =     1

                               MULTIPLIER FOR DELT =     1.000

                            INITIAL TIME STEP SIZE =   86400.00    

 REUSING RECH FROM LAST STRESS PERIOD

 CHD NO.   LAYER   ROW   COL    START HEAD        END HEAD         IFACE           
 ----------------------------------------------------------------------------------
      1      4      3      1       109.7           109.7           0.000    
      2      5      3      1       109.7           109.7           0.000    
      3      4      3      2       109.7           109.7           0.000    
      4      5      3      2       109.7           109.7           0.000    
      5      4      3      3       109.7           109.7           0.000    
      6      5      3      3       109.7           109.7           0.000    
      7      4      3      4       109.7           109.7           0.000    
      8      5      3      4       109.7           109.7           0.000    
      9      4      3      5       109.7           109.7           0.000    
     10      5      3      5       109.7           109.7           0.000    
     11      4      3      6       109.7           109.7           0.000    
     12      5      3      6       109.7           109.7           0.000    
     13      4      3      7       109.7           109.7           0.000    
     14      5      3      7       109.7           109.7           0.000    
     15      4      3      8       109.7           109.7           0.000    
     16      5      3      8       109.7           109.7           0.000    
     17      4      2      8       109.7           109.7           0.000    
     18      5      2      8       109.7           109.7           0.000    
     19      4      2      9       109.7           109.7           0.000    
     20      5      2      9       109.7           109.7           0.000    
     21      4      2     10       109.7           109.7           0.000    
     22      5      2     10       109.7           109.7           0.000    
     23      4      2     11       109.7           109.7           0.000    
     24      5      2     11       109.7           109.7           0.000    
     25      4      2     12       109.7           109.7           0.000    
     26      5      2     12       109.7           109.7           0.000    
     27      4      2     13       109.7           109.7           0.000    
     28      5      2     13       109.7           109.7           0.000    
     29      4      2     14       109.7           109.7           0.000    
     30      5      2     14       109.7           109.7           0.000    
     31      4      2     15       109.7           109.7           0.000    
     32      5      2     15       109.7           109.7           0.000    
     33      4      2     16       109.7           109.7           0.000    
     34      5      2     16       109.7           109.7           0.000    
     35      4      2     17       109.7           109.7           0.000    
     36      5      2     17       109.7           109.7           0.000    
     37      4      2     18       109.7           109.7           0.000    
     38      5      2     18       109.7           109.7           0.000    
     39      4      2     19       109.7           109.7           0.000    
     40      5      2     19       109.7           109.7           0.000    
     41      4      2     20       109.7           109.7           0.000    
     42      5      2     20       109.7           109.7           0.000    
     43      4      2     21       109.7           109.7           0.000    
     44      5      2     21       109.7           109.7           0.000    
     45      4      2     22       109.7           109.7           0.000    
     46      5      2     22       109.7           109.7           0.000    
     47      4      2     23       109.7           109.7           0.000    
     48      5      2     23       109.7           109.7           0.000    
     49      4      2     24       109.7           109.7           0.000    
     50      5      2     24       109.7           109.7           0.000    
     51      4      2     25       109.7           109.7           0.000    
     52      5      2     25       109.7           109.7           0.000    
     53      4      2     26       109.7           109.7           0.000    
     54      5      2     26       109.7           109.7           0.000    
     55      4      1     26       109.7           109.7           0.000    
     56      5      1     26       109.7           109.7           0.000    
     57      4      1     27       109.7           109.7           0.000    
     58      5      1     27       109.7           109.7           0.000    
     59      4      1     28       109.7           109.7           0.000    
     60      5      1     28       109.7           109.7           0.000    
     61      4      1     29       109.7           109.7           0.000    
     62      5      1     29       109.7           109.7           0.000    
     63      4      1     30       109.7           109.7           0.000    
     64      5      1     30       109.7           109.7           0.000    
     65      4      1     31       109.7           109.7           0.000    
     66      5      1     31       109.7           109.7           0.000    
     67      4      1     32       109.7           109.7           0.000    
     68      5      1     32       109.7           109.7           0.000    
     69      4      1     33       109.7           109.7           0.000    
     70      5      1     33       109.7           109.7           0.000    
     71      4      1     34       109.7           109.7           0.000    
     72      5      1     34       109.7           109.7           0.000    
     73      4      1     35       109.7           109.7           0.000    
     74      5      1     35       109.7           109.7           0.000    
     75      4     36     35       109.3           109.2           0.000    
     76      5     36     35       109.3           109.2           0.000    
     77      4     35     34       109.3           109.2           0.000    
     78      5     35     34       109.3           109.2           0.000    
     79      4     36     34       109.3           109.2           0.000    
     80      5     36     34       109.3           109.2           0.000    
     81      4     36     33       109.3           109.2           0.000    
     82      5     36     33       109.3           109.2           0.000    
     83      4     36     32       109.3           109.2           0.000    
     84      5     36     32       109.3           109.2           0.000    
     85      4     37     32       109.3           109.2           0.000    
     86      5     37     32       109.3           109.2           0.000    
     87      4     37     31       109.3           109.2           0.000    
     88      5     37     31       109.3           109.2           0.000    
     89      4     38     31       109.3           109.2           0.000    
     90      5     38     31       109.3           109.2           0.000    
     91      4     38     30       109.3           109.2           0.000    
     92      5     38     30       109.3           109.2           0.000    
     93      4     39     30       109.3           109.2           0.000    
     94      5     39     30       109.3           109.2           0.000    
     95      4     39     29       109.3           109.2           0.000    
     96      5     39     29       109.3           109.2           0.000    
     97      4     40     29       109.3           109.2           0.000    
     98      5     40     29       109.3           109.2           0.000    
     99      4     40     28       109.3           109.2           0.000    
    100      5     40     28       109.3           109.2           0.000    
    101      4     40     27       109.3           109.2           0.000    
    102      5     40     27       109.3           109.2           0.000    
    103      4     41     27       109.3           109.2           0.000    
    104      5     41     27       109.3           109.2           0.000    
    105      4     41     26       109.3           109.2           0.000    
    106      5     41     26       109.3           109.2           0.000    
    107      4     41     25       109.3           109.2           0.000    
    108      5     41     25       109.3           109.2           0.000    
    109      4     41     24       109.3           109.2           0.000    
    110      5     41     24       109.3           109.2           0.000    
    111      4     41     23       109.3           109.2           0.000    
    112      5     41     23       109.3           109.2           0.000    
    113      4     41     22       109.3           109.2           0.000    
    114      5     41     22       109.3           109.2           0.000    
    115      4     42     22       109.3           109.2           0.000    
    116      5     42     22       109.3           109.2           0.000    
    117      4     42     21       109.3           109.2           0.000    
    118      5     42     21       109.3           109.2           0.000    
    119      4     42     20       109.3           109.2           0.000    
    120      5     42     20       109.3           109.2           0.000    
    121      4     42     19       109.3           109.2           0.000    
    122      5     42     19       109.3           109.2           0.000    
    123      4     43     18       109.3           109.2           0.000    
    124      5     43     18       109.3           109.2           0.000    
    125      4     42     18       109.3           109.2           0.000    
    126      5     42     18       109.3           109.2           0.000    
    127      4     42     17       109.3           109.2           0.000    
    128      5     42     17       109.3           109.2           0.000    
    129      4     42     16       109.3           109.2           0.000    
    130      5     42     16       109.3           109.2           0.000    
    131      4     42     15       109.3           109.2           0.000    
    132      5     42     15       109.3           109.2           0.000    
    133      4     43     15       109.3           109.2           0.000    
    134      5     43     15       109.3           109.2           0.000    
    135      4     43     14       109.3           109.2           0.000    
    136      5     43     14       109.3           109.2           0.000    
    137      4     43     13       109.3           109.2           0.000    
    138      5     43     13       109.3           109.2           0.000    
    139      4     43     12       109.3           109.2           0.000    
    140      5     43     12       109.3           109.2           0.000    
    141      4     43     11       109.3           109.2           0.000    
    142      5     43     11       109.3           109.2           0.000    
    143      4     43     10       109.3           109.2           0.000    
    144      5     43     10       109.3           109.2           0.000    
    145      4     44     10       109.3           109.2           0.000    
    146      5     44     10       109.3           109.2           0.000    
    147      4     44      9       109.3           109.2           0.000    
    148      5     44      9       109.3           109.2           0.000    
    149      4     44      8       109.3           109.2           0.000    
    150      5     44      8       109.3           109.2           0.000    
    151      4     44      7       109.3           109.2           0.000    
    152      5     44      7       109.3           109.2           0.000    
    153      4     44      6       109.3           109.2           0.000    
    154      5     44      6       109.3           109.2           0.000    
    155      4     44      5       109.3           109.2           0.000    
    156      5     44      5       109.3           109.2           0.000    
    157      4     44      4       109.3           109.2           0.000    
    158      5     44      4       109.3           109.2           0.000    
    159      4     44      3       109.3           109.2           0.000    
    160      5     44      3       109.3           109.2           0.000    
    161      4     45      3       109.3           109.2           0.000    
    162      5     45      3       109.3           109.2           0.000    
    163      4     45      2       109.3           109.2           0.000    
    164      5     45      2       109.3           109.2           0.000    
    165      4     45      1       109.3           109.2           0.000    
    166      5     45      1       109.3           109.2           0.000    


    166 TIME-VARIANT SPECIFIED-HEAD CELLS

 SOLVING FOR HEAD 

 CELL CONVERSIONS FOR ITER.=  2  LAYER=  2  STEP=  1  PERIOD=   8   (ROW,COL)
    DRY( 32,  1)   DRY( 32,  2)   DRY( 32,  3)   DRY( 32,  4)   DRY( 32,  5)   
    DRY( 33,  1)   DRY( 33,  2)   DRY( 33,  3)   DRY( 33,  4)   DRY( 34,  1)   
    DRY( 34,  2)   DRY( 34,  3)   DRY( 34,  4)   DRY( 35,  1)   DRY( 35,  2)   
    DRY( 35,  3)   DRY( 35,  4)   DRY( 36,  1)   DRY( 36,  2)   DRY( 36,  3)   
    DRY( 36,  4)   DRY( 37,  1)   DRY( 37,  2)   DRY( 37,  3)   DRY( 37,  4)   
    DRY( 38,  4)   DRY( 39,  4)   DRY( 43,  3)   DRY( 44,  3)   

 CELL CONVERSIONS FOR ITER.=  3  LAYER=  2  STEP=  1  PERIOD=   8   (ROW,COL)
    DRY( 33,  5)   

 CELL CONVERSIONS FOR ITER.=  4  LAYER=  2  STEP=  1  PERIOD=   8   (ROW,COL)
    DRY( 40,  4)   


     5 CALLS TO PCG ROUTINE FOR TIME STEP   1 IN STRESS PERIOD    8
    98 TOTAL ITERATIONS

 MAXIMUM HEAD CHANGE FOR EACH ITERATION (1 INDICATES THE FIRST INNER ITERATION):

    HEAD CHANGE    HEAD CHANGE    HEAD CHANGE    HEAD CHANGE    HEAD CHANGE 
   LAYER,ROW,COL  LAYER,ROW,COL  LAYER,ROW,COL  LAYER,ROW,COL  LAYER,ROW,COL
 ---------------------------------------------------------------------------
  1 -0.1957      0  0.1132      0 -0.8097E-01  0 -0.6913E-01  0 -0.5237E-01
   (  5, 43,  5)  (  5, 39,  1)  (  5, 34,  1)  (  5, 38,  1)  (  5, 40,  1)
  0  0.3874E-01  0  0.3110E-01  0  0.2153E-01  0  0.1868E-01  0 -0.1473E-01
   (  5, 37,  1)  (  5, 39,  1)  (  5, 36,  5)  (  5, 39,  5)  (  5, 36,  5)
  0 -0.9836E-02  0  0.7404E-02  0 -0.6177E-02  0  0.5055E-02  0 -0.3311E-02
   (  5, 38,  5)  (  5, 35,  5)  (  5, 36,  8)  (  5, 33,  8)  (  5, 13,  1)
  0  0.2498E-02  0 -0.1470E-02  0  0.1281E-02  0 -0.6520E-03  0  0.4997E-03
   (  5, 13,  1)  (  5, 31,  1)  (  5, 35,  1)  (  5, 27,  6)  (  5, 28, 11)
  0  0.5361E-03  0 -0.5253E-03  0 -0.2514E-03  0 -0.1848E-03  0 -0.1342E-03
   (  5, 37,  1)  (  5, 35,  1)  (  5, 32,  7)  (  5, 29, 11)  (  5, 15,  1)
  0 -0.1354E-03  0  0.8299E-04  0  0.6801E-04  0 -0.5491E-04  0  0.4788E-04
   (  5, 37,  1)  (  5, 36,  1)  (  5, 32,  6)  (  5, 31,  7)  (  5, 33,  2)
  1 -0.1569E-02  0 -0.1291E-02  0 -0.1789E-02  0 -0.1034E-02  0  0.9466E-03
   (  5, 34,  2)  (  3, 33,  3)  (  5, 28,  1)  (  5, 35,  1)  (  5, 39,  1)
  0  0.6237E-03  0  0.3501E-03  0  0.3180E-03  0 -0.2200E-03  0 -0.1859E-03
   (  5, 32,  1)  (  5, 32,  6)  (  5, 39,  1)  (  5, 36,  1)  (  5, 33,  5)
  0  0.1163E-03  0  0.8649E-04  0 -0.7451E-04  0  0.5184E-04  0 -0.4105E-04
   (  5, 38, 10)  (  5, 33,  5)  (  5, 36,  9)  (  5, 29,  1)  (  5, 34,  1)
  0  0.2621E-04  0 -0.2349E-04  0  0.2109E-04  0  0.1412E-04  0  0.1095E-04
   (  5, 31,  1)  (  5, 13,  1)  (  5, 13,  1)  (  5, 35,  1)  (  5, 26,  1)
  0  0.6852E-05  0  0.4246E-05  0 -0.3216E-05  0  0.1968E-05  0 -0.2213E-05
   (  5, 14,  1)  (  5, 30,  1)  (  5, 12,  2)  (  5, 13,  2)  (  5, 30,  1)
  0  0.1649E-05  0 -0.1453E-05  0  0.1032E-05  0 -0.6520E-06  1 -0.8089E-03
   (  5, 32,  3)  (  5, 36,  1)  (  5, 39,  1)  (  5, 31,  9)  (  5, 35,  7)
  0  0.5250E-03  0  0.2610E-03  0  0.1154E-03  0  0.6727E-04  0 -0.8615E-04
   (  5, 34,  5)  (  5, 36,  8)  (  5, 24,  1)  (  5, 33,  1)  (  5, 38,  1)
  0  0.4642E-04  0 -0.2604E-04  0  0.3555E-04  0  0.2163E-04  0  0.1027E-04
   (  5, 37,  4)  (  5, 33,  1)  (  3, 33,  5)  (  3, 33,  5)  (  5, 39, 11)
  0 -0.9933E-05  0  0.7179E-05  0 -0.5005E-05  0  0.3588E-05  0 -0.2308E-05
   (  5, 34, 10)  (  5, 40,  1)  (  5, 41,  1)  (  5, 30,  1)  (  5, 28,  1)
  0  0.2340E-05  0 -0.1507E-05  0  0.1015E-05  0  0.6617E-06  1 -0.1209E-03
   (  5, 33,  1)  (  5, 40,  7)  (  5, 29,  8)  (  5, 40,  2)  (  5, 41,  5)
  0  0.7276E-04  0 -0.5948E-04  0  0.3130E-04  0 -0.2161E-04  0 -0.2364E-04
   (  5, 37,  1)  (  5, 33,  1)  (  5, 31,  2)  (  5, 27,  2)  (  5, 39,  5)
  0  0.1301E-04  0  0.1239E-04  0 -0.7799E-05  0 -0.9631E-05  0 -0.6133E-05
   (  5, 38,  1)  (  5, 37,  5)  (  5, 36,  1)  (  5, 36,  1)  (  5, 38,  1)
  0  0.4990E-05  0 -0.3253E-05  0 -0.2188E-05  0 -0.1619E-05  0 -0.1266E-05
   (  5, 14,  1)  (  5, 38,  4)  (  5, 28,  8)  (  5, 40,  6)  (  5, 35,  4)
  0  0.1013E-05  0 -0.7054E-06  1  0.4880E-06
   (  5, 34,  1)  (  5, 32,  2)  (  5, 31,  2)

 MAXIMUM RESIDUAL FOR EACH ITERATION (1 INDICATES THE FIRST INNER ITERATION):

    RESIDUAL       RESIDUAL       RESIDUAL       RESIDUAL       RESIDUAL    
   LAYER,ROW,COL  LAYER,ROW,COL  LAYER,ROW,COL  LAYER,ROW,COL  LAYER,ROW,COL
 ---------------------------------------------------------------------------
  1  0.4804E-03  0  0.4212E-03  0  0.3305E-03  0  0.2390E-03  0 -0.2186E-03
   (  4, 35, 35)  (  4, 35, 35)  (  4, 35, 35)  (  4, 35, 35)  (  4, 43,  6)
  0 -0.1915E-03  0 -0.1596E-03  0 -0.1312E-03  0 -0.1047E-03  0 -0.8189E-04
   (  4, 43,  5)  (  4, 43,  4)  (  4, 43,  4)  (  4, 43,  4)  (  4, 43,  4)
  0 -0.6381E-04  0 -0.5103E-04  0 -0.3923E-04  0 -0.2893E-04  0 -0.2100E-04
   (  4, 44,  2)  (  4, 44,  2)  (  4, 44,  2)  (  4, 44,  2)  (  4, 44,  2)
  0 -0.1514E-04  0 -0.1240E-04  0 -0.9703E-05  0 -0.6275E-05  0 -0.4533E-05
   (  4, 44,  2)  (  4, 44,  2)  (  4, 44,  2)  (  4, 44,  2)  (  4, 34, 35)
  0 -0.3640E-05  0 -0.2849E-05  0 -0.1984E-05  0  0.1472E-05  0  0.1070E-05
   (  4, 34, 35)  (  4, 34, 35)  (  4, 34, 35)  (  4, 35, 35)  (  4, 35, 35)
  0  0.7958E-06  0  0.6697E-06  0  0.4678E-06  0  0.3127E-06  0  0.2481E-06
   (  4, 35, 35)  (  4, 35, 35)  (  4, 35, 35)  (  4, 35, 35)  (  4, 35, 35)
  1  0.9883E-03  0 -0.6329E-03  0 -0.3664E-03  0 -0.2474E-03  0 -0.1685E-03
   (  2, 33,  5)  (  3, 33,  5)  (  3, 33,  5)  (  3, 33,  5)  (  3, 33,  5)
  0 -0.1010E-03  0 -0.6947E-04  0 -0.5078E-04  0 -0.3746E-04  0 -0.2533E-04
   (  3, 33,  5)  (  3, 33,  5)  (  3, 33,  5)  (  3, 33,  5)  (  3, 33,  5)
  0 -0.1620E-04  0  0.1022E-04  0  0.6583E-05  0  0.4737E-05  0  0.3843E-05
   (  3, 33,  5)  (  2, 33,  5)  (  2, 33,  5)  (  2, 33,  5)  (  2, 33,  5)
  0  0.2626E-05  0  0.1745E-05  0  0.1170E-05  0  0.8738E-06  0  0.6401E-06
   (  2, 33,  5)  (  2, 33,  5)  (  2, 33,  5)  (  2, 33,  5)  (  2, 33,  5)
  0  0.4087E-06  0  0.2772E-06  0  0.1955E-06  0 -0.1454E-06  0 -0.1169E-06
   (  2, 33,  5)  (  2, 33,  5)  (  2, 33,  5)  (  3, 33,  5)  (  3, 33,  5)
  0 -0.9530E-07  0 -0.7815E-07  0 -0.5651E-07  0 -0.3697E-07  1  0.5140E-04
   (  3, 33,  5)  (  3, 33,  5)  (  3, 33,  5)  (  3, 33,  5)  (  2, 40,  4)
  0  0.2046E-04  0  0.8490E-05  0  0.5920E-05  0  0.3658E-05  0  0.2787E-05
   (  2, 40,  4)  (  2, 40,  4)  (  2, 40,  4)  (  2, 40,  4)  (  2, 40,  4)
  0  0.1813E-05  0  0.1373E-05  0  0.7417E-06  0  0.3899E-06  0 -0.2415E-06
   (  2, 40,  4)  (  2, 40,  4)  (  2, 40,  4)  (  2, 40,  4)  (  3, 40,  4)
  0 -0.1630E-06  0 -0.1013E-06  0 -0.6651E-07  0 -0.4541E-07  0 -0.3359E-07
   (  3, 40,  4)  (  3, 40,  4)  (  3, 40,  4)  (  3, 33,  5)  (  3, 33,  5)
  0 -0.2707E-07  0 -0.1693E-07  0 -0.1022E-07  0 -0.6933E-08  1  0.1387E-05
   (  3, 33,  5)  (  3, 33,  5)  (  3, 33,  5)  (  3, 33,  5)  (  3, 40,  4)
  0  0.9570E-06  0  0.6389E-06  0  0.4616E-06  0  0.3653E-06  0  0.2452E-06
   (  3, 40,  4)  (  3, 40,  4)  (  3, 40,  4)  (  3, 40,  4)  (  3, 40,  4)
  0  0.1777E-06  0  0.1091E-06  0  0.9544E-07  0  0.7958E-07  0  0.6267E-07
   (  3, 40,  4)  (  4, 39,  4)  (  4, 39,  4)  (  4, 40,  3)  (  4, 40,  3)
  0  0.4677E-07  0  0.3263E-07  0  0.2160E-07  0  0.1360E-07  0  0.1005E-07
   (  4, 40,  3)  (  4, 40,  3)  (  4, 40,  3)  (  4, 40,  3)  (  4, 41,  2)
  0  0.9331E-08  0  0.7637E-08  1  0.6953E-08
   (  4, 41,  2)  (  4, 41,  2)  (  4, 41,  2)



 OUTPUT CONTROL FOR STRESS PERIOD    8   TIME STEP    1
    SAVE HEAD FOR ALL LAYERS
    SAVE DRAWDOWN FOR ALL LAYERS
    SAVE BUDGET
    PRINT BUDGET
 UBDSV1 SAVING "         STORAGE" ON UNIT   9 AT TIME STEP  1, STRESS PERIOD   8
 UBDSV2 SAVING "   CONSTANT HEAD" ON UNIT   9 AT TIME STEP  1, STRESS PERIOD   8
 UBDSV1 SAVING "FLOW RIGHT FACE " ON UNIT   9 AT TIME STEP  1, STRESS PERIOD   8
 UBDSV1 SAVING "FLOW FRONT FACE " ON UNIT   9 AT TIME STEP  1, STRESS PERIOD   8
 UBDSV1 SAVING "FLOW LOWER FACE " ON UNIT   9 AT TIME STEP  1, STRESS PERIOD   8
 UBDSV3 SAVING "        RECHARGE" ON UNIT   9 AT TIME STEP  1, STRESS PERIOD   8

 HEAD WILL BE SAVED ON UNIT   37 AT END OF TIME STEP    1, STRESS PERIOD    8

 DRAWDOWN WILL BE SAVED ON UNIT   38 AT END OF TIME STEP    1, STRESS PERIOD    8
1
  VOLUMETRIC BUDGET FOR ENTIRE MODEL AT END OF TIME STEP    1, STRESS PERIOD   8
  ------------------------------------------------------------------------------

     CUMULATIVE VOLUMES      L**3       RATES FOR THIS TIME STEP      L**3/T
     ------------------                 ------------------------

           IN:                                      IN:
           ---                                      ---
             STORAGE =        4920.6699               STORAGE =       3.4263E-03
       CONSTANT HEAD =        1200.5652         CONSTANT HEAD =       2.8668E-03
            RECHARGE =          97.0633              RECHARGE =       1.0213E-04

            TOTAL IN =        6218.2988              TOTAL IN =       6.3952E-03

          OUT:                                     OUT:
          ----                                     ----
             STORAGE =           0.0000               STORAGE =           0.0000
       CONSTANT HEAD =        6218.4097         CONSTANT HEAD =       6.3954E-03
            RECHARGE =           0.0000              RECHARGE =           0.0000

           TOTAL OUT =        6218.4097             TOTAL OUT =       6.3954E-03

            IN - OUT =          -0.1108              IN - OUT =      -1.3132E-07

 PERCENT DISCREPANCY =          -0.00     PERCENT DISCREPANCY =          -0.00






         TIME SUMMARY AT END OF TIME STEP    1 IN STRESS PERIOD    8
                    SECONDS     MINUTES      HOURS       DAYS        YEARS
                    -----------------------------------------------------------
   TIME STEP LENGTH  86400.      1440.0      24.000      1.0000     2.73785E-03
 STRESS PERIOD TIME  86400.      1440.0      24.000      1.0000     2.73785E-03
         TOTAL TIME 9.50400E+05  15840.      264.00      11.000     3.01164E-02
1
1
                            STRESS PERIOD NO.    9, LENGTH =   259200.0    
                            -----------------------------------------------

                              NUMBER OF TIME STEPS =     3

                               MULTIPLIER FOR DELT =     1.000

                            INITIAL TIME STEP SIZE =   86400.00    

 REUSING RECH FROM LAST STRESS PERIOD

 CHD NO.   LAYER   ROW   COL    START HEAD        END HEAD         IFACE           
 ----------------------------------------------------------------------------------
      1      4      3      1       109.7           109.5           0.000    
      2      5      3      1       109.7           109.5           0.000    
      3      4      3      2       109.7           109.5           0.000    
      4      5      3      2       109.7           109.5           0.000    
      5      4      3      3       109.7           109.5           0.000    
      6      5      3      3       109.7           109.5           0.000    
      7      4      3      4       109.7           109.5           0.000    
      8      5      3      4       109.7           109.5           0.000    
      9      4      3      5       109.7           109.5           0.000    
     10      5      3      5       109.7           109.5           0.000    
     11      4      3      6       109.7           109.5           0.000    
     12      5      3      6       109.7           109.5           0.000    
     13      4      3      7       109.7           109.5           0.000    
     14      5      3      7       109.7           109.5           0.000    
     15      4      3      8       109.7           109.5           0.000    
     16      5      3      8       109.7           109.5           0.000    
     17      4      2      8       109.7           109.5           0.000    
     18      5      2      8       109.7           109.5           0.000    
     19      4      2      9       109.7           109.5           0.000    
     20      5      2      9       109.7           109.5           0.000    
     21      4      2     10       109.7           109.5           0.000    
     22      5      2     10       109.7           109.5           0.000    
     23      4      2     11       109.7           109.5           0.000    
     24      5      2     11       109.7           109.5           0.000    
     25      4      2     12       109.7           109.5           0.000    
     26      5      2     12       109.7           109.5           0.000    
     27      4      2     13       109.7           109.5           0.000    
     28      5      2     13       109.7           109.5           0.000    
     29      4      2     14       109.7           109.5           0.000    
     30      5      2     14       109.7           109.5           0.000    
     31      4      2     15       109.7           109.5           0.000    
     32      5      2     15       109.7           109.5           0.000    
     33      4      2     16       109.7           109.5           0.000    
     34      5      2     16       109.7           109.5           0.000    
     35      4      2     17       109.7           109.5           0.000    
     36      5      2     17       109.7           109.5           0.000    
     37      4      2     18       109.7           109.5           0.000    
     38      5      2     18       109.7           109.5           0.000    
     39      4      2     19       109.7           109.5           0.000    
     40      5      2     19       109.7           109.5           0.000    
     41      4      2     20       109.7           109.5           0.000    
     42      5      2     20       109.7           109.5           0.000    
     43      4      2     21       109.7           109.5           0.000    
     44      5      2     21       109.7           109.5           0.000    
     45      4      2     22       109.7           109.5           0.000    
     46      5      2     22       109.7           109.5           0.000    
     47      4      2     23       109.7           109.5           0.000    
     48      5      2     23       109.7           109.5           0.000    
     49      4      2     24       109.7           109.5           0.000    
     50      5      2     24       109.7           109.5           0.000    
     51      4      2     25       109.7           109.5           0.000    
     52      5      2     25       109.7           109.5           0.000    
     53      4      2     26       109.7           109.5           0.000    
     54      5      2     26       109.7           109.5           0.000    
     55      4      1     26       109.7           109.5           0.000    
     56      5      1     26       109.7           109.5           0.000    
     57      4      1     27       109.7           109.5           0.000    
     58      5      1     27       109.7           109.5           0.000    
     59      4      1     28       109.7           109.5           0.000    
     60      5      1     28       109.7           109.5           0.000    
     61      4      1     29       109.7           109.5           0.000    
     62      5      1     29       109.7           109.5           0.000    
     63      4      1     30       109.7           109.5           0.000    
     64      5      1     30       109.7           109.5           0.000    
     65      4      1     31       109.7           109.5           0.000    
     66      5      1     31       109.7           109.5           0.000    
     67      4      1     32       109.7           109.5           0.000    
     68      5      1     32       109.7           109.5           0.000    
     69      4      1     33       109.7           109.5           0.000    
     70      5      1     33       109.7           109.5           0.000    
     71      4      1     34       109.7           109.5           0.000    
     72      5      1     34       109.7           109.5           0.000    
     73      4      1     35       109.7           109.5           0.000    
     74      5      1     35       109.7           109.5           0.000    
     75      4     36     35       109.2           109.1           0.000    
     76      5     36     35       109.2           109.1           0.000    
     77      4     35     34       109.2           109.1           0.000    
     78      5     35     34       109.2           109.1           0.000    
     79      4     36     34       109.2           109.1           0.000    
     80      5     36     34       109.2           109.1           0.000    
     81      4     36     33       109.2           109.1           0.000    
     82      5     36     33       109.2           109.1           0.000    
     83      4     36     32       109.2           109.1           0.000    
     84      5     36     32       109.2           109.1           0.000    
     85      4     37     32       109.2           109.1           0.000    
     86      5     37     32       109.2           109.1           0.000    
     87      4     37     31       109.2           109.1           0.000    
     88      5     37     31       109.2           109.1           0.000    
     89      4     38     31       109.2           109.1           0.000    
     90      5     38     31       109.2           109.1           0.000    
     91      4     38     30       109.2           109.1           0.000    
     92      5     38     30       109.2           109.1           0.000    
     93      4     39     30       109.2           109.1           0.000    
     94      5     39     30       109.2           109.1           0.000    
     95      4     39     29       109.2           109.1           0.000    
     96      5     39     29       109.2           109.1           0.000    
     97      4     40     29       109.2           109.1           0.000    
     98      5     40     29       109.2           109.1           0.000    
     99      4     40     28       109.2           109.1           0.000    
    100      5     40     28       109.2           109.1           0.000    
    101      4     40     27       109.2           109.1           0.000    
    102      5     40     27       109.2           109.1           0.000    
    103      4     41     27       109.2           109.1           0.000    
    104      5     41     27       109.2           109.1           0.000    
    105      4     41     26       109.2           109.1           0.000    
    106      5     41     26       109.2           109.1           0.000    
    107      4     41     25       109.2           109.1           0.000    
    108      5     41     25       109.2           109.1           0.000    
    109      4     41     24       109.2           109.1           0.000    
    110      5     41     24       109.2           109.1           0.000    
    111      4     41     23       109.2           109.1           0.000    
    112      5     41     23       109.2           109.1           0.000    
    113      4     41     22       109.2           109.1           0.000    
    114      5     41     22       109.2           109.1           0.000    
    115      4     42     22       109.2           109.1           0.000    
    116      5     42     22       109.2           109.1           0.000    
    117      4     42     21       109.2           109.1           0.000    
    118      5     42     21       109.2           109.1           0.000    
    119      4     42     20       109.2           109.1           0.000    
    120      5     42     20       109.2           109.1           0.000    
    121      4     42     19       109.2           109.1           0.000    
    122      5     42     19       109.2           109.1           0.000    
    123      4     43     18       109.2           109.1           0.000    
    124      5     43     18       109.2           109.1           0.000    
    125      4     42     18       109.2           109.1           0.000    
    126      5     42     18       109.2           109.1           0.000    
    127      4     42     17       109.2           109.1           0.000    
    128      5     42     17       109.2           109.1           0.000    
    129      4     42     16       109.2           109.1           0.000    
    130      5     42     16       109.2           109.1           0.000    
    131      4     42     15       109.2           109.1           0.000    
    132      5     42     15       109.2           109.1           0.000    
    133      4     43     15       109.2           109.1           0.000    
    134      5     43     15       109.2           109.1           0.000    
    135      4     43     14       109.2           109.1           0.000    
    136      5     43     14       109.2           109.1           0.000    
    137      4     43     13       109.2           109.1           0.000    
    138      5     43     13       109.2           109.1           0.000    
    139      4     43     12       109.2           109.1           0.000    
    140      5     43     12       109.2           109.1           0.000    
    141      4     43     11       109.2           109.1           0.000    
    142      5     43     11       109.2           109.1           0.000    
    143      4     43     10       109.2           109.1           0.000    
    144      5     43     10       109.2           109.1           0.000    
    145      4     44     10       109.2           109.1           0.000    
    146      5     44     10       109.2           109.1           0.000    
    147      4     44      9       109.2           109.1           0.000    
    148      5     44      9       109.2           109.1           0.000    
    149      4     44      8       109.2           109.1           0.000    
    150      5     44      8       109.2           109.1           0.000    
    151      4     44      7       109.2           109.1           0.000    
    152      5     44      7       109.2           109.1           0.000    
    153      4     44      6       109.2           109.1           0.000    
    154      5     44      6       109.2           109.1           0.000    
    155      4     44      5       109.2           109.1           0.000    
    156      5     44      5       109.2           109.1           0.000    
    157      4     44      4       109.2           109.1           0.000    
    158      5     44      4       109.2           109.1           0.000    
    159      4     44      3       109.2           109.1           0.000    
    160      5     44      3       109.2           109.1           0.000    
    161      4     45      3       109.2           109.1           0.000    
    162      5     45      3       109.2           109.1           0.000    
    163      4     45      2       109.2           109.1           0.000    
    164      5     45      2       109.2           109.1           0.000    
    165      4     45      1       109.2           109.1           0.000    
    166      5     45      1       109.2           109.1           0.000    


    166 TIME-VARIANT SPECIFIED-HEAD CELLS

 SOLVING FOR HEAD 

 CELL CONVERSIONS FOR ITER.=  2  LAYER=  2  STEP=  1  PERIOD=   9   (ROW,COL)
    DRY( 26,  1)   DRY( 26,  2)   DRY( 26,  3)   DRY( 26,  4)   DRY( 26,  5)   
    DRY( 26,  6)   DRY( 27,  1)   DRY( 27,  2)   DRY( 27,  3)   DRY( 27,  4)   
    DRY( 27,  5)   DRY( 27,  6)   DRY( 28,  1)   DRY( 28,  2)   DRY( 28,  3)   
    DRY( 28,  4)   DRY( 28,  5)   DRY( 28,  6)   DRY( 29,  1)   DRY( 29,  2)   
    DRY( 29,  3)   DRY( 29,  4)   DRY( 29,  5)   DRY( 29,  6)   DRY( 30,  1)   
    DRY( 30,  2)   DRY( 30,  3)   DRY( 30,  4)   DRY( 30,  5)   DRY( 30,  6)   
    DRY( 31,  1)   DRY( 31,  2)   DRY( 31,  3)   DRY( 31,  4)   DRY( 31,  5)   
    DRY( 34,  5)   DRY( 35,  5)   DRY( 36,  5)   DRY( 37,  5)   DRY( 41,  4)   
    DRY( 42,  4)   DRY( 43,  4)   DRY( 44,  4)   

 CELL CONVERSIONS FOR ITER.=  5  LAYER=  2  STEP=  1  PERIOD=   9   (ROW,COL)
    DRY( 31,  6)   


     6 CALLS TO PCG ROUTINE FOR TIME STEP   1 IN STRESS PERIOD    9
    92 TOTAL ITERATIONS

 MAXIMUM HEAD CHANGE FOR EACH ITERATION (1 INDICATES THE FIRST INNER ITERATION):

    HEAD CHANGE    HEAD CHANGE    HEAD CHANGE    HEAD CHANGE    HEAD CHANGE 
   LAYER,ROW,COL  LAYER,ROW,COL  LAYER,ROW,COL  LAYER,ROW,COL  LAYER,ROW,COL
 ---------------------------------------------------------------------------
  1 -0.1931      0  0.1221      0 -0.8753E-01  0  0.6428E-01  0 -0.4419E-01
   (  5, 43,  5)  (  5, 39,  1)  (  5, 35,  1)  (  5, 33,  2)  (  5, 30,  2)
  0  0.3940E-01  0  0.2814E-01  0  0.2209E-01  0  0.1794E-01  0  0.1238E-01
   (  5, 37,  1)  (  5, 39,  1)  (  5, 40,  1)  (  5, 39,  5)  (  5, 40,  5)
  0 -0.1000E-01  0  0.7059E-02  0 -0.4782E-02  0  0.3350E-02  0 -0.2952E-02
   (  5, 38,  5)  (  5, 35,  5)  (  5, 36,  8)  (  5, 34,  9)  (  5, 13,  1)
  0  0.2242E-02  0 -0.1168E-02  0  0.9902E-03  0 -0.8170E-03  0  0.8145E-03
   (  5, 13,  1)  (  5, 36,  4)  (  5, 33,  3)  (  5, 32,  1)  (  5, 37,  1)
  0 -0.5979E-03  0 -0.3964E-03  0  0.3189E-03  0  0.1741E-03  0 -0.1507E-03
   (  5, 35,  1)  (  5, 12,  2)  (  5, 12,  2)  (  5, 33, 11)  (  5, 15,  1)
  0 -0.1371E-03  0  0.9085E-04  0 -0.5945E-04  0 -0.5994E-04  0  0.3362E-04
   (  5, 38,  1)  (  5, 40,  2)  (  5, 38,  1)  (  5, 27, 10)  (  5, 30,  9)
  1 -0.7263E-03  0 -0.5166E-03  0 -0.9859E-03  0  0.5290E-03  0 -0.5103E-03
   (  5, 29,  4)  (  3, 27,  4)  (  5, 33,  1)  (  5, 36,  1)  (  5, 37,  1)
  0 -0.3183E-03  0 -0.2547E-03  0 -0.2719E-03  0 -0.1323E-03  0  0.7838E-04
   (  5, 19,  2)  (  5, 31,  1)  (  5, 38,  1)  (  5, 25,  7)  (  5, 14,  1)
  0 -0.7239E-04  0 -0.5015E-04  0 -0.4175E-04  0 -0.3586E-04  0  0.2400E-04
   (  5, 32, 10)  (  5, 25,  5)  (  5, 39,  1)  (  5, 34,  1)  (  5, 12,  1)
  0  0.2069E-04  0 -0.1665E-04  0  0.1019E-04  0 -0.8791E-05  0  0.7377E-05
   (  5, 31,  1)  (  5, 27,  1)  (  5, 13,  1)  (  5, 27,  4)  (  5, 25,  1)
  0  0.8077E-05  0 -0.4107E-05  0  0.3352E-05  0 -0.1690E-05  0 -0.1272E-05
   (  5, 35,  1)  (  5, 33,  1)  (  5, 14,  1)  (  5, 38,  6)  (  5, 35,  1)
  0  0.1262E-05  0 -0.8329E-06  1 -0.3035E-03  0 -0.2929E-04  0 -0.9594E-05
   (  5, 38,  2)  (  5, 40,  2)  (  2, 31,  6)  (  5, 26,  3)  (  5, 13,  1)
  0 -0.7270E-05  0  0.4809E-05  0 -0.3291E-05  0  0.1798E-05  0 -0.1024E-05
   (  5, 32,  1)  (  5, 37,  1)  (  5, 39,  2)  (  5, 36,  1)  (  5, 17,  1)
  0 -0.7164E-06  1 -0.1571E-04  0  0.1441E-04  0 -0.3531E-05  0  0.2840E-05
   (  5, 31,  8)  (  5, 14,  1)  (  5, 14,  1)  (  5, 33,  1)  (  5, 37,  1)
  0 -0.1588E-05  0  0.1186E-05  0 -0.6057E-06  1 -0.9933E-04  0 -0.8819E-04
   (  5, 38,  1)  (  5, 31,  1)  (  5, 28,  1)  (  3, 31,  6)  (  3, 31,  6)
  0 -0.6550E-04  0  0.3522E-04  0 -0.2978E-04  0 -0.2020E-04  0 -0.1567E-04
   (  5, 30,  1)  (  5, 34,  1)  (  5, 37,  1)  (  5, 33,  1)  (  5, 25,  1)
  0 -0.1684E-04  0  0.1349E-04  0  0.8869E-05  0  0.6352E-05  0 -0.5424E-05
   (  5, 39,  1)  (  5, 36,  1)  (  5, 15,  1)  (  5, 38,  5)  (  5, 32, 11)
  0 -0.2510E-05  0 -0.2108E-05  0 -0.1451E-05  0 -0.1245E-05  0 -0.1051E-05
   (  5, 36,  9)  (  5, 29,  5)  (  5, 29,  8)  (  5, 39,  7)  (  5, 32,  1)
  0  0.7217E-06  1 -0.5181E-06
   (  5, 24,  1)  (  5, 12,  1)

 MAXIMUM RESIDUAL FOR EACH ITERATION (1 INDICATES THE FIRST INNER ITERATION):

    RESIDUAL       RESIDUAL       RESIDUAL       RESIDUAL       RESIDUAL    
   LAYER,ROW,COL  LAYER,ROW,COL  LAYER,ROW,COL  LAYER,ROW,COL  LAYER,ROW,COL
 ---------------------------------------------------------------------------
  1  0.4144E-03  0  0.3545E-03  0  0.2698E-03  0 -0.2341E-03  0 -0.2169E-03
   (  4, 35, 35)  (  4, 35, 35)  (  4, 35, 35)  (  4, 43,  6)  (  4, 43,  5)
  0 -0.1858E-03  0 -0.1529E-03  0 -0.1238E-03  0 -0.9600E-04  0 -0.7438E-04
   (  4, 43,  5)  (  4, 43,  4)  (  4, 43,  4)  (  4, 43,  4)  (  4, 44,  2)
  0 -0.6125E-04  0 -0.4788E-04  0 -0.3552E-04  0 -0.2568E-04  0 -0.1844E-04
   (  4, 44,  2)  (  4, 44,  2)  (  4, 44,  2)  (  4, 44,  2)  (  4, 44,  2)
  0 -0.1289E-04  0 -0.9438E-05  0 -0.7998E-05  0 -0.5590E-05  0 -0.4266E-05
   (  4, 44,  2)  (  4, 44,  2)  (  4, 44,  2)  (  4, 34, 35)  (  4, 34, 35)
  0 -0.3661E-05  0 -0.2538E-05  0 -0.1734E-05  0  0.1294E-05  0  0.9452E-06
   (  4, 34, 35)  (  4, 34, 35)  (  4, 34, 35)  (  4, 35, 35)  (  4, 35, 35)
  0  0.7014E-06  0  0.5814E-06  0  0.4161E-06  0 -0.2785E-06  0 -0.1962E-06
   (  4, 35, 35)  (  4, 35, 35)  (  4, 35, 35)  (  3,  3,  2)  (  3,  3,  2)
  1  0.1854E-05  0  0.1551E-05  0  0.1100E-05  0  0.1258E-05  0  0.9805E-06
   (  3, 26,  6)  (  3, 26,  1)  (  3, 26,  1)  (  4, 31,  1)  (  4, 30,  1)
  0  0.7719E-06  0  0.6374E-06  0  0.6754E-06  0  0.5644E-06  0  0.4731E-06
   (  4, 39,  1)  (  4, 37,  1)  (  4, 42,  1)  (  4, 43,  1)  (  4, 44,  1)
  0  0.4071E-06  0  0.3286E-06  0  0.2356E-06  0 -0.1611E-06  0 -0.1306E-06
   (  4, 44,  1)  (  4, 44,  1)  (  4, 44,  1)  (  4, 43,  2)  (  4, 44,  2)
  0 -0.1232E-06  0 -0.1117E-06  0 -0.8379E-07  0 -0.6231E-07  0 -0.4665E-07
   (  4, 44,  2)  (  4, 44,  2)  (  4, 44,  2)  (  4, 44,  2)  (  4, 44,  2)
  0  0.3375E-07  0  0.2418E-07  0  0.2190E-07  0  0.1678E-07  0  0.1247E-07
   (  4, 42,  2)  (  4, 42,  2)  (  4, 43,  2)  (  4, 43,  2)  (  4, 43,  2)
  0  0.9530E-08  0  0.6399E-08  1  0.1553E-06  0  0.3529E-07  0  0.1092E-07
   (  4, 43,  2)  (  4, 43,  2)  (  2, 31,  6)  (  2, 31,  6)  (  2, 31,  6)
  0 -0.9468E-08  0 -0.5924E-08  0  0.4680E-08  0  0.3974E-08  0  0.3300E-08
   (  4, 28,  1)  (  4, 40,  3)  (  3, 26,  3)  (  3, 26,  3)  (  3, 26,  3)
  0  0.2606E-08  1 -0.1411E-05  0 -0.1801E-06  0 -0.5881E-07  0 -0.2747E-07
   (  3, 31,  6)  (  3, 31,  6)  (  3, 31,  6)  (  3, 31,  6)  (  3, 31,  6)
  0 -0.1740E-07  0 -0.1287E-07  0 -0.9145E-08  1  0.1642E-05  0  0.1102E-05
   (  3, 31,  6)  (  3, 31,  6)  (  3, 31,  6)  (  3, 31,  6)  (  3, 31,  6)
  0  0.7228E-06  0  0.5426E-06  0  0.3432E-06  0  0.2220E-06  0  0.1595E-06
   (  3, 31,  6)  (  3, 31,  6)  (  3, 31,  6)  (  3, 31,  6)  (  3, 31,  6)
  0  0.1224E-06  0  0.9491E-07  0  0.7724E-07  0  0.6004E-07  0  0.4521E-07
   (  3, 31,  6)  (  4, 31,  5)  (  4, 31,  5)  (  4, 31,  5)  (  4, 31,  5)
  0  0.3219E-07  0  0.2309E-07  0  0.1768E-07  0  0.1244E-07  0  0.1107E-07
   (  4, 31,  5)  (  4, 31,  5)  (  4, 31,  5)  (  4, 31,  5)  (  4, 31,  5)
  0  0.7446E-08  1  0.7215E-08
   (  4, 31,  5)  (  4, 31,  5)



 OUTPUT CONTROL FOR STRESS PERIOD    9   TIME STEP    1
    SAVE HEAD FOR ALL LAYERS
    SAVE DRAWDOWN FOR ALL LAYERS
    SAVE BUDGET
    PRINT BUDGET
 UBDSV1 SAVING "         STORAGE" ON UNIT   9 AT TIME STEP  1, STRESS PERIOD   9
 UBDSV2 SAVING "   CONSTANT HEAD" ON UNIT   9 AT TIME STEP  1, STRESS PERIOD   9
 UBDSV1 SAVING "FLOW RIGHT FACE " ON UNIT   9 AT TIME STEP  1, STRESS PERIOD   9
 UBDSV1 SAVING "FLOW FRONT FACE " ON UNIT   9 AT TIME STEP  1, STRESS PERIOD   9
 UBDSV1 SAVING "FLOW LOWER FACE " ON UNIT   9 AT TIME STEP  1, STRESS PERIOD   9
 UBDSV3 SAVING "        RECHARGE" ON UNIT   9 AT TIME STEP  1, STRESS PERIOD   9

 HEAD WILL BE SAVED ON UNIT   37 AT END OF TIME STEP    1, STRESS PERIOD    9

 DRAWDOWN WILL BE SAVED ON UNIT   38 AT END OF TIME STEP    1, STRESS PERIOD    9
1
  VOLUMETRIC BUDGET FOR ENTIRE MODEL AT END OF TIME STEP    1, STRESS PERIOD   9
  ------------------------------------------------------------------------------

     CUMULATIVE VOLUMES      L**3       RATES FOR THIS TIME STEP      L**3/T
     ------------------                 ------------------------

           IN:                                      IN:
           ---                                      ---
             STORAGE =        5172.1309               STORAGE =       2.9104E-03
       CONSTANT HEAD =        1452.3577         CONSTANT HEAD =       2.9143E-03
            RECHARGE =         105.8872              RECHARGE =       1.0213E-04

            TOTAL IN =        6730.3755              TOTAL IN =       5.9268E-03

          OUT:                                     OUT:
          ----                                     ----
             STORAGE =           0.0000               STORAGE =           0.0000
       CONSTANT HEAD =        6730.4995         CONSTANT HEAD =       5.9270E-03
            RECHARGE =           0.0000              RECHARGE =           0.0000

           TOTAL OUT =        6730.4995             TOTAL OUT =       5.9270E-03

            IN - OUT =          -0.1240              IN - OUT =      -1.4622E-07

 PERCENT DISCREPANCY =          -0.00     PERCENT DISCREPANCY =          -0.00






         TIME SUMMARY AT END OF TIME STEP    1 IN STRESS PERIOD    9
                    SECONDS     MINUTES      HOURS       DAYS        YEARS
                    -----------------------------------------------------------
   TIME STEP LENGTH  86400.      1440.0      24.000      1.0000     2.73785E-03
 STRESS PERIOD TIME  86400.      1440.0      24.000      1.0000     2.73785E-03
         TOTAL TIME 1.03680E+06  17280.      288.00      12.000     3.28542E-02
1

 SOLVING FOR HEAD 

 CELL CONVERSIONS FOR ITER.=  2  LAYER=  2  STEP=  2  PERIOD=   9   (ROW,COL)
    DRY( 20,  5)   DRY( 20,  6)   DRY( 20,  7)   DRY( 20,  8)   DRY( 21,  3)   
    DRY( 21,  4)   DRY( 21,  5)   DRY( 21,  6)   DRY( 21,  7)   DRY( 21,  8)   
    DRY( 22,  1)   DRY( 22,  2)   DRY( 22,  3)   DRY( 22,  4)   DRY( 22,  5)   
    DRY( 22,  6)   DRY( 22,  7)   DRY( 22,  8)   DRY( 23,  1)   DRY( 23,  2)   
    DRY( 23,  3)   DRY( 23,  4)   DRY( 23,  5)   DRY( 23,  6)   DRY( 23,  7)   
    DRY( 24,  1)   DRY( 24,  2)   DRY( 24,  3)   DRY( 24,  4)   DRY( 24,  5)   
    DRY( 24,  6)   DRY( 24,  7)   DRY( 25,  1)   DRY( 25,  2)   DRY( 25,  3)   
    DRY( 25,  4)   DRY( 25,  5)   DRY( 25,  6)   DRY( 25,  7)   DRY( 26,  7)   
    DRY( 27,  7)   DRY( 28,  7)   DRY( 32,  6)   DRY( 33,  6)   DRY( 34,  6)   
    DRY( 38,  5)   DRY( 39,  5)   DRY( 40,  5)   DRY( 41,  5)   
     4 CALLS TO PCG ROUTINE FOR TIME STEP   2 IN STRESS PERIOD    9
    66 TOTAL ITERATIONS

 MAXIMUM HEAD CHANGE FOR EACH ITERATION (1 INDICATES THE FIRST INNER ITERATION):

    HEAD CHANGE    HEAD CHANGE    HEAD CHANGE    HEAD CHANGE    HEAD CHANGE 
   LAYER,ROW,COL  LAYER,ROW,COL  LAYER,ROW,COL  LAYER,ROW,COL  LAYER,ROW,COL
 ---------------------------------------------------------------------------
  1 -0.1922      0  0.1144      0 -0.7496E-01  0 -0.6597E-01  0 -0.4527E-01
   (  5, 43,  5)  (  5, 39,  1)  (  5, 36,  1)  (  5, 39,  1)  (  5, 41,  1)
  0  0.3917E-01  0 -0.2802E-01  0  0.1947E-01  0  0.1766E-01  0  0.1194E-01
   (  5, 38,  1)  (  5, 35,  2)  (  5, 40,  1)  (  5, 39,  5)  (  5, 40,  5)
  0 -0.9742E-02  0  0.6808E-02  0  0.4299E-02  0 -0.3326E-02  0  0.3210E-02
   (  5, 38,  5)  (  5, 35,  5)  (  5, 42,  6)  (  5, 37,  8)  (  5, 35,  8)
  0 -0.1826E-02  0 -0.1320E-02  0 -0.9114E-03  0  0.7128E-03  0 -0.7225E-03
   (  5, 32,  8)  (  5, 13,  1)  (  5, 30,  1)  (  5, 27,  1)  (  5, 33,  1)
  0  0.6069E-03  0 -0.5249E-03  0 -0.2609E-03  0 -0.2042E-03  0  0.1550E-03
   (  5, 37,  1)  (  5, 35,  1)  (  5, 28, 10)  (  5, 36,  1)  (  5, 39,  2)
  0 -0.1516E-03  0  0.8256E-04  0 -0.7810E-04  0  0.5556E-04  0  0.3428E-04
   (  5, 38,  1)  (  5, 40,  2)  (  5, 35,  6)  (  5, 13,  2)  (  5, 37,  1)
  1 -0.6714E-03  0 -0.5953E-03  0 -0.8264E-03  0  0.4477E-03  0 -0.5809E-03
   (  5, 24,  7)  (  3, 20,  6)  (  5, 27,  1)  (  5, 30,  1)  (  5, 34,  1)
  0  0.3752E-03  0 -0.2760E-03  0  0.1657E-03  0 -0.1756E-03  0 -0.1360E-03
   (  5, 36,  1)  (  5, 38,  1)  (  5, 14,  1)  (  5, 39,  1)  (  5, 14,  1)
  0 -0.6376E-04  0 -0.5694E-04  0  0.3864E-04  0  0.3657E-04  0 -0.3717E-04
   (  5, 23,  1)  (  5, 19,  4)  (  5, 40,  1)  (  5, 12,  1)  (  5, 13,  2)
  0  0.1703E-04  0  0.1036E-04  0 -0.8092E-05  0  0.7740E-05  0 -0.7371E-05
   (  5, 13,  2)  (  5, 34, 13)  (  5, 28,  1)  (  5, 24,  1)  (  5, 36,  2)
  0  0.7094E-05  0 -0.4709E-05  0  0.3486E-05  0  0.1713E-05  0  0.1609E-05
   (  5, 34,  1)  (  5, 35,  7)  (  5, 34,  5)  (  5, 15,  2)  (  5, 30,  1)
  0  0.1173E-05  0 -0.8596E-06  1  0.2178E-05  0 -0.2469E-05  0 -0.3065E-05
   (  5, 38,  1)  (  5, 39,  2)  (  5, 13,  1)  (  5, 22,  1)  (  2, 19,  7)
  0 -0.2246E-05  0  0.2510E-05  0 -0.1562E-05  0  0.1361E-05  0 -0.6673E-06
   (  5, 28,  2)  (  5, 30,  1)  (  5, 34,  1)  (  5, 36,  1)  (  5, 38,  1)
  1  0.7049E-06
   (  5, 39,  1)

 MAXIMUM RESIDUAL FOR EACH ITERATION (1 INDICATES THE FIRST INNER ITERATION):

    RESIDUAL       RESIDUAL       RESIDUAL       RESIDUAL       RESIDUAL    
   LAYER,ROW,COL  LAYER,ROW,COL  LAYER,ROW,COL  LAYER,ROW,COL  LAYER,ROW,COL
 ---------------------------------------------------------------------------
  1  0.4076E-03  0  0.3488E-03  0  0.2612E-03  0 -0.2337E-03  0 -0.2082E-03
   (  4, 35, 35)  (  4, 35, 35)  (  4, 35, 35)  (  4, 43,  6)  (  4, 43,  5)
  0 -0.1786E-03  0 -0.1517E-03  0 -0.1228E-03  0 -0.9468E-04  0 -0.7455E-04
   (  4, 43,  5)  (  4, 43,  4)  (  4, 43,  4)  (  4, 43,  4)  (  4, 44,  2)
  0 -0.6085E-04  0 -0.4718E-04  0 -0.3499E-04  0 -0.2515E-04  0 -0.1797E-04
   (  4, 44,  2)  (  4, 44,  2)  (  4, 44,  2)  (  4, 44,  2)  (  4, 44,  2)
  0 -0.1227E-04  0 -0.8641E-05  0 -0.6427E-05  0 -0.5544E-05  0 -0.4216E-05
   (  4, 44,  2)  (  4, 44,  2)  (  4, 34, 35)  (  4, 34, 35)  (  4, 34, 35)
  0 -0.3651E-05  0 -0.2587E-05  0 -0.1763E-05  0  0.1277E-05  0  0.1007E-05
   (  4, 34, 35)  (  4, 34, 35)  (  4, 34, 35)  (  4, 35, 35)  (  4, 35, 35)
  0  0.8379E-06  0  0.5911E-06  0  0.3958E-06  0 -0.2678E-06  0 -0.1930E-06
   (  4, 35, 35)  (  4, 35, 35)  (  4, 35, 35)  (  3,  3,  2)  (  3,  3,  2)
  1  0.1770E-05  0  0.1437E-05  0  0.1017E-05  0  0.1052E-05  0  0.8246E-06
   (  3, 20,  5)  (  3, 20,  8)  (  3, 20,  8)  (  4, 25,  1)  (  4, 24,  1)
  0  0.5791E-06  0  0.5011E-06  0  0.4020E-06  0  0.4274E-06  0  0.3712E-06
   (  4, 34,  1)  (  4, 41,  1)  (  4, 42,  1)  (  4, 43,  1)  (  4, 43,  1)
  0  0.3120E-06  0  0.2786E-06  0 -0.2130E-06  0 -0.1666E-06  0 -0.1205E-06
   (  4, 44,  1)  (  4, 44,  1)  (  4, 43,  4)  (  4, 43,  4)  (  4, 43,  4)
  0 -0.9171E-07  0 -0.7812E-07  0 -0.6548E-07  0 -0.5650E-07  0 -0.4256E-07
   (  4, 44,  2)  (  4, 44,  2)  (  4, 44,  2)  (  4, 44,  2)  (  4, 44,  2)
  0 -0.3404E-07  0  0.2232E-07  0  0.1500E-07  0  0.1333E-07  0  0.1065E-07
   (  4, 44,  2)  (  4, 42,  2)  (  4, 43,  2)  (  4, 43,  2)  (  4, 43,  2)
  0  0.8274E-08  0  0.6280E-08  1  0.8054E-08  0  0.6371E-08  0  0.4177E-08
   (  4, 43,  2)  (  4, 43,  2)  (  2, 19,  7)  (  2, 19,  7)  (  2, 19,  7)
  0 -0.3211E-08  0 -0.3292E-08  0  0.2780E-08  0  0.2268E-08  0  0.1988E-08
   (  4, 40,  4)  (  4, 39,  3)  (  4, 42,  3)  (  4, 42,  3)  (  4, 42,  3)
  1  0.1686E-08
   (  4, 44,  1)



 OUTPUT CONTROL FOR STRESS PERIOD    9   TIME STEP    2
    SAVE HEAD FOR ALL LAYERS
    SAVE DRAWDOWN FOR ALL LAYERS
    SAVE BUDGET
    PRINT BUDGET
 UBDSV1 SAVING "         STORAGE" ON UNIT   9 AT TIME STEP  2, STRESS PERIOD   9
 UBDSV2 SAVING "   CONSTANT HEAD" ON UNIT   9 AT TIME STEP  2, STRESS PERIOD   9
 UBDSV1 SAVING "FLOW RIGHT FACE " ON UNIT   9 AT TIME STEP  2, STRESS PERIOD   9
 UBDSV1 SAVING "FLOW FRONT FACE " ON UNIT   9 AT TIME STEP  2, STRESS PERIOD   9
 UBDSV1 SAVING "FLOW LOWER FACE " ON UNIT   9 AT TIME STEP  2, STRESS PERIOD   9
 UBDSV3 SAVING "        RECHARGE" ON UNIT   9 AT TIME STEP  2, STRESS PERIOD   9

 HEAD WILL BE SAVED ON UNIT   37 AT END OF TIME STEP    2, STRESS PERIOD    9

 DRAWDOWN WILL BE SAVED ON UNIT   38 AT END OF TIME STEP    2, STRESS PERIOD    9
1
  VOLUMETRIC BUDGET FOR ENTIRE MODEL AT END OF TIME STEP    2, STRESS PERIOD   9
  ------------------------------------------------------------------------------

     CUMULATIVE VOLUMES      L**3       RATES FOR THIS TIME STEP      L**3/T
     ------------------                 ------------------------

           IN:                                      IN:
           ---                                      ---
             STORAGE =        5408.3311               STORAGE =       2.7338E-03
       CONSTANT HEAD =        1698.2306         CONSTANT HEAD =       2.8458E-03
            RECHARGE =         114.7112              RECHARGE =       1.0213E-04

            TOTAL IN =        7221.2725              TOTAL IN =       5.6817E-03

          OUT:                                     OUT:
          ----                                     ----
             STORAGE =           0.0000               STORAGE =           0.0000
       CONSTANT HEAD =        7221.4072         CONSTANT HEAD =       5.6818E-03
            RECHARGE =           0.0000              RECHARGE =           0.0000

           TOTAL OUT =        7221.4072             TOTAL OUT =       5.6818E-03

            IN - OUT =          -0.1348              IN - OUT =      -1.2340E-07

 PERCENT DISCREPANCY =          -0.00     PERCENT DISCREPANCY =          -0.00






         TIME SUMMARY AT END OF TIME STEP    2 IN STRESS PERIOD    9
                    SECONDS     MINUTES      HOURS       DAYS        YEARS
                    -----------------------------------------------------------
   TIME STEP LENGTH  86400.      1440.0      24.000      1.0000     2.73785E-03
 STRESS PERIOD TIME 1.72800E+05  2880.0      48.000      2.0000     5.47570E-03
         TOTAL TIME 1.12320E+06  18720.      312.00      13.000     3.55921E-02
1

 SOLVING FOR HEAD 

 CELL CONVERSIONS FOR ITER.=  2  LAYER=  2  STEP=  3  PERIOD=   9   (ROW,COL)
    DRY( 18,  9)   DRY( 19,  6)   DRY( 19,  7)   DRY( 19,  8)   DRY( 19,  9)   
    DRY( 20,  4)   DRY( 20,  9)   DRY( 21,  2)   DRY( 23,  8)   DRY( 24,  8)   
    DRY( 25,  8)   DRY( 26,  8)   DRY( 29,  7)   DRY( 30,  7)   DRY( 31,  7)   
    DRY( 32,  7)   DRY( 35,  6)   DRY( 36,  6)   DRY( 37,  6)   DRY( 38,  6)   
    DRY( 42,  5)   DRY( 43,  5)   DRY( 44,  5)   
     4 CALLS TO PCG ROUTINE FOR TIME STEP   3 IN STRESS PERIOD    9
    61 TOTAL ITERATIONS

 MAXIMUM HEAD CHANGE FOR EACH ITERATION (1 INDICATES THE FIRST INNER ITERATION):

    HEAD CHANGE    HEAD CHANGE    HEAD CHANGE    HEAD CHANGE    HEAD CHANGE 
   LAYER,ROW,COL  LAYER,ROW,COL  LAYER,ROW,COL  LAYER,ROW,COL  LAYER,ROW,COL
 ---------------------------------------------------------------------------
  1 -0.1916      0  0.1152      0 -0.7879E-01  0  0.6198E-01  0 -0.4551E-01
   (  5, 43,  5)  (  5, 39,  1)  (  5, 35,  1)  (  5, 34,  2)  (  5, 31,  2)
  0  0.4414E-01  0 -0.2414E-01  0  0.2030E-01  0  0.1687E-01  0 -0.1230E-01
   (  5, 37,  1)  (  5, 41,  5)  (  5, 40,  1)  (  5, 39,  5)  (  5, 36,  5)
  0 -0.9254E-02  0  0.7152E-02  0 -0.4337E-02  0 -0.2883E-02  0  0.3176E-02
   (  5, 38,  5)  (  5, 35,  5)  (  5, 36,  8)  (  5, 37,  8)  (  5, 35,  8)
  0 -0.1999E-02  0 -0.1184E-02  0  0.8460E-03  0 -0.9292E-03  0  0.8371E-03
   (  5, 33,  8)  (  5, 13,  1)  (  5, 34,  4)  (  5, 31,  1)  (  5, 37,  1)
  0 -0.6453E-03  0  0.3990E-03  0 -0.2521E-03  0  0.2012E-03  0 -0.1404E-03
   (  5, 35,  1)  (  5, 38,  1)  (  5, 27,  9)  (  5, 33, 11)  (  5, 12,  1)
  0  0.1141E-03  0 -0.1242E-03  0 -0.7925E-04  0  0.5911E-04  0 -0.3856E-04
   (  5, 40,  2)  (  5, 38,  1)  (  5, 13,  2)  (  5, 13,  2)  (  5, 39,  1)
  1 -0.3503E-03  0 -0.4099E-03  0  0.2555E-03  0 -0.2649E-03  0  0.1067E-03
   (  3, 19,  6)  (  5, 27,  1)  (  5, 30,  1)  (  5, 33,  2)  (  5, 17,  1)
  0 -0.1637E-03  0  0.9773E-04  0  0.5945E-04  0 -0.4633E-04  0 -0.3639E-04
   (  5, 38,  1)  (  5, 37,  1)  (  5, 24,  2)  (  5, 27,  4)  (  5, 14,  1)
  0 -0.2699E-04  0 -0.2743E-04  0 -0.2319E-04  0  0.1685E-04  0 -0.1128E-04
   (  5, 40,  1)  (  5, 29, 10)  (  5, 14,  1)  (  5, 13,  1)  (  5, 14,  2)
  0  0.8548E-05  0 -0.5337E-05  0  0.4411E-05  0 -0.5026E-05  0 -0.2193E-05
   (  5, 14,  2)  (  5, 32,  7)  (  5, 33,  1)  (  5, 30,  1)  (  5, 13,  1)
  0 -0.2303E-05  0  0.1604E-05  0 -0.1016E-05  0  0.1063E-05  0 -0.7026E-06
   (  5, 41,  1)  (  5, 12,  1)  (  5, 39,  3)  (  5, 35,  1)  (  5, 34,  1)
  1  0.1046E-05  0 -0.1315E-05  0  0.1234E-05  0 -0.1023E-05  0 -0.7113E-06
   (  5, 30,  7)  (  2, 18,  8)  (  5, 30,  1)  (  2, 18,  8)  (  2, 18,  8)
  1 -0.4149E-06
   (  5, 33,  1)

 MAXIMUM RESIDUAL FOR EACH ITERATION (1 INDICATES THE FIRST INNER ITERATION):

    RESIDUAL       RESIDUAL       RESIDUAL       RESIDUAL       RESIDUAL    
   LAYER,ROW,COL  LAYER,ROW,COL  LAYER,ROW,COL  LAYER,ROW,COL  LAYER,ROW,COL
 ---------------------------------------------------------------------------
  1  0.4052E-03  0  0.3456E-03  0  0.2611E-03  0 -0.2343E-03  0 -0.2141E-03
   (  4, 35, 35)  (  4, 35, 35)  (  4, 35, 35)  (  4, 43,  6)  (  4, 43,  5)
  0 -0.1858E-03  0 -0.1513E-03  0 -0.1228E-03  0 -0.9417E-04  0 -0.7468E-04
   (  4, 43,  5)  (  4, 43,  4)  (  4, 43,  4)  (  4, 43,  4)  (  4, 44,  2)
  0 -0.6039E-04  0 -0.4672E-04  0 -0.3462E-04  0 -0.2473E-04  0 -0.1763E-04
   (  4, 44,  2)  (  4, 44,  2)  (  4, 44,  2)  (  4, 44,  2)  (  4, 44,  2)
  0 -0.1181E-04  0 -0.8328E-05  0 -0.6528E-05  0 -0.5478E-05  0 -0.4215E-05
   (  4, 44,  2)  (  4, 44,  2)  (  4, 34, 35)  (  4, 34, 35)  (  4, 34, 35)
  0 -0.3634E-05  0 -0.2572E-05  0 -0.1763E-05  0  0.1267E-05  0  0.9387E-06
   (  4, 34, 35)  (  4, 34, 35)  (  4, 34, 35)  (  4, 35, 35)  (  4, 35, 35)
  0  0.7807E-06  0  0.5997E-06  0  0.4296E-06  0 -0.2775E-06  0  0.1981E-06
   (  4, 35, 35)  (  4, 35, 35)  (  4, 35, 35)  (  3,  3,  2)  (  4, 42,  3)
  1  0.1435E-05  0  0.8817E-06  0  0.5568E-06  0  0.3325E-06  0  0.3181E-06
   (  3, 19,  6)  (  3, 19,  6)  (  3, 19,  6)  (  4, 43,  4)  (  4, 43,  4)
  0  0.3091E-06  0  0.2358E-06  0  0.2376E-06  0  0.2277E-06  0  0.2040E-06
   (  4, 43,  4)  (  4, 43,  1)  (  4, 43,  1)  (  4, 43,  1)  (  4, 44,  1)
  0  0.1797E-06  0  0.1439E-06  0  0.1116E-06  0 -0.8579E-07  0 -0.6797E-07
   (  4, 44,  1)  (  4, 44,  1)  (  4, 44,  1)  (  4, 43,  4)  (  4, 43,  4)
  0 -0.4758E-07  0 -0.3756E-07  0 -0.3426E-07  0 -0.2729E-07  0 -0.1968E-07
   (  4, 43,  4)  (  4, 44,  2)  (  4, 44,  2)  (  4, 44,  2)  (  4, 44,  2)
  0  0.1492E-07  0  0.9939E-08  0  0.7303E-08  0  0.6303E-08  0  0.4508E-08
   (  4, 42,  2)  (  4, 42,  2)  (  4, 43,  2)  (  4, 43,  2)  (  4, 43,  2)
  1  0.3655E-08  0  0.2844E-08  0  0.2179E-08  0 -0.1561E-08  0  0.1540E-08
   (  2, 18,  8)  (  2, 18,  8)  (  2, 18,  8)  (  4, 39,  4)  (  4, 41,  3)
  1  0.1360E-08
   (  4, 41,  3)



 OUTPUT CONTROL FOR STRESS PERIOD    9   TIME STEP    3
    SAVE HEAD FOR ALL LAYERS
    SAVE DRAWDOWN FOR ALL LAYERS
    SAVE BUDGET
    PRINT BUDGET
 UBDSV1 SAVING "         STORAGE" ON UNIT   9 AT TIME STEP  3, STRESS PERIOD   9
 UBDSV2 SAVING "   CONSTANT HEAD" ON UNIT   9 AT TIME STEP  3, STRESS PERIOD   9
 UBDSV1 SAVING "FLOW RIGHT FACE " ON UNIT   9 AT TIME STEP  3, STRESS PERIOD   9
 UBDSV1 SAVING "FLOW FRONT FACE " ON UNIT   9 AT TIME STEP  3, STRESS PERIOD   9
 UBDSV1 SAVING "FLOW LOWER FACE " ON UNIT   9 AT TIME STEP  3, STRESS PERIOD   9
 UBDSV3 SAVING "        RECHARGE" ON UNIT   9 AT TIME STEP  3, STRESS PERIOD   9

 HEAD WILL BE SAVED ON UNIT   37 AT END OF TIME STEP    3, STRESS PERIOD    9

 DRAWDOWN WILL BE SAVED ON UNIT   38 AT END OF TIME STEP    3, STRESS PERIOD    9
1
  VOLUMETRIC BUDGET FOR ENTIRE MODEL AT END OF TIME STEP    3, STRESS PERIOD   9
  ------------------------------------------------------------------------------

     CUMULATIVE VOLUMES      L**3       RATES FOR THIS TIME STEP      L**3/T
     ------------------                 ------------------------

           IN:                                      IN:
           ---                                      ---
             STORAGE =        5640.0386               STORAGE =       2.6818E-03
       CONSTANT HEAD =        1933.5538         CONSTANT HEAD =       2.7236E-03
            RECHARGE =         123.5351              RECHARGE =       1.0213E-04

            TOTAL IN =        7697.1274              TOTAL IN =       5.5076E-03

          OUT:                                     OUT:
          ----                                     ----
             STORAGE =           0.0000               STORAGE =           0.0000
       CONSTANT HEAD =        7697.2725         CONSTANT HEAD =       5.5077E-03
            RECHARGE =           0.0000              RECHARGE =           0.0000

           TOTAL OUT =        7697.2725             TOTAL OUT =       5.5077E-03

            IN - OUT =          -0.1450              IN - OUT =      -1.2526E-07

 PERCENT DISCREPANCY =          -0.00     PERCENT DISCREPANCY =          -0.00






         TIME SUMMARY AT END OF TIME STEP    3 IN STRESS PERIOD    9
                    SECONDS     MINUTES      HOURS       DAYS        YEARS
                    -----------------------------------------------------------
   TIME STEP LENGTH  86400.      1440.0      24.000      1.0000     2.73785E-03
 STRESS PERIOD TIME 2.59200E+05  4320.0      72.000      3.0000     8.21355E-03
         TOTAL TIME 1.20960E+06  20160.      336.00      14.000     3.83299E-02
1
1
                            STRESS PERIOD NO.   10, LENGTH =   86400.00    
                            -----------------------------------------------

                              NUMBER OF TIME STEPS =     1

                               MULTIPLIER FOR DELT =     1.000

                            INITIAL TIME STEP SIZE =   86400.00    

 REUSING RECH FROM LAST STRESS PERIOD

 CHD NO.   LAYER   ROW   COL    START HEAD        END HEAD         IFACE           
 ----------------------------------------------------------------------------------
      1      4      3      1       109.5           109.4           0.000    
      2      5      3      1       109.5           109.4           0.000    
      3      4      3      2       109.5           109.4           0.000    
      4      5      3      2       109.5           109.4           0.000    
      5      4      3      3       109.5           109.4           0.000    
      6      5      3      3       109.5           109.4           0.000    
      7      4      3      4       109.5           109.4           0.000    
      8      5      3      4       109.5           109.4           0.000    
      9      4      3      5       109.5           109.4           0.000    
     10      5      3      5       109.5           109.4           0.000    
     11      4      3      6       109.5           109.4           0.000    
     12      5      3      6       109.5           109.4           0.000    
     13      4      3      7       109.5           109.4           0.000    
     14      5      3      7       109.5           109.4           0.000    
     15      4      3      8       109.5           109.4           0.000    
     16      5      3      8       109.5           109.4           0.000    
     17      4      2      8       109.5           109.4           0.000    
     18      5      2      8       109.5           109.4           0.000    
     19      4      2      9       109.5           109.4           0.000    
     20      5      2      9       109.5           109.4           0.000    
     21      4      2     10       109.5           109.4           0.000    
     22      5      2     10       109.5           109.4           0.000    
     23      4      2     11       109.5           109.4           0.000    
     24      5      2     11       109.5           109.4           0.000    
     25      4      2     12       109.5           109.4           0.000    
     26      5      2     12       109.5           109.4           0.000    
     27      4      2     13       109.5           109.4           0.000    
     28      5      2     13       109.5           109.4           0.000    
     29      4      2     14       109.5           109.4           0.000    
     30      5      2     14       109.5           109.4           0.000    
     31      4      2     15       109.5           109.4           0.000    
     32      5      2     15       109.5           109.4           0.000    
     33      4      2     16       109.5           109.4           0.000    
     34      5      2     16       109.5           109.4           0.000    
     35      4      2     17       109.5           109.4           0.000    
     36      5      2     17       109.5           109.4           0.000    
     37      4      2     18       109.5           109.4           0.000    
     38      5      2     18       109.5           109.4           0.000    
     39      4      2     19       109.5           109.4           0.000    
     40      5      2     19       109.5           109.4           0.000    
     41      4      2     20       109.5           109.4           0.000    
     42      5      2     20       109.5           109.4           0.000    
     43      4      2     21       109.5           109.4           0.000    
     44      5      2     21       109.5           109.4           0.000    
     45      4      2     22       109.5           109.4           0.000    
     46      5      2     22       109.5           109.4           0.000    
     47      4      2     23       109.5           109.4           0.000    
     48      5      2     23       109.5           109.4           0.000    
     49      4      2     24       109.5           109.4           0.000    
     50      5      2     24       109.5           109.4           0.000    
     51      4      2     25       109.5           109.4           0.000    
     52      5      2     25       109.5           109.4           0.000    
     53      4      2     26       109.5           109.4           0.000    
     54      5      2     26       109.5           109.4           0.000    
     55      4      1     26       109.5           109.4           0.000    
     56      5      1     26       109.5           109.4           0.000    
     57      4      1     27       109.5           109.4           0.000    
     58      5      1     27       109.5           109.4           0.000    
     59      4      1     28       109.5           109.4           0.000    
     60      5      1     28       109.5           109.4           0.000    
     61      4      1     29       109.5           109.4           0.000    
     62      5      1     29       109.5           109.4           0.000    
     63      4      1     30       109.5           109.4           0.000    
     64      5      1     30       109.5           109.4           0.000    
     65      4      1     31       109.5           109.4           0.000    
     66      5      1     31       109.5           109.4           0.000    
     67      4      1     32       109.5           109.4           0.000    
     68      5      1     32       109.5           109.4           0.000    
     69      4      1     33       109.5           109.4           0.000    
     70      5      1     33       109.5           109.4           0.000    
     71      4      1     34       109.5           109.4           0.000    
     72      5      1     34       109.5           109.4           0.000    
     73      4      1     35       109.5           109.4           0.000    
     74      5      1     35       109.5           109.4           0.000    
     75      4     36     35       109.1           109.1           0.000    
     76      5     36     35       109.1           109.1           0.000    
     77      4     35     34       109.1           109.1           0.000    
     78      5     35     34       109.1           109.1           0.000    
     79      4     36     34       109.1           109.1           0.000    
     80      5     36     34       109.1           109.1           0.000    
     81      4     36     33       109.1           109.1           0.000    
     82      5     36     33       109.1           109.1           0.000    
     83      4     36     32       109.1           109.1           0.000    
     84      5     36     32       109.1           109.1           0.000    
     85      4     37     32       109.1           109.1           0.000    
     86      5     37     32       109.1           109.1           0.000    
     87      4     37     31       109.1           109.1           0.000    
     88      5     37     31       109.1           109.1           0.000    
     89      4     38     31       109.1           109.1           0.000    
     90      5     38     31       109.1           109.1           0.000    
     91      4     38     30       109.1           109.1           0.000    
     92      5     38     30       109.1           109.1           0.000    
     93      4     39     30       109.1           109.1           0.000    
     94      5     39     30       109.1           109.1           0.000    
     95      4     39     29       109.1           109.1           0.000    
     96      5     39     29       109.1           109.1           0.000    
     97      4     40     29       109.1           109.1           0.000    
     98      5     40     29       109.1           109.1           0.000    
     99      4     40     28       109.1           109.1           0.000    
    100      5     40     28       109.1           109.1           0.000    
    101      4     40     27       109.1           109.1           0.000    
    102      5     40     27       109.1           109.1           0.000    
    103      4     41     27       109.1           109.1           0.000    
    104      5     41     27       109.1           109.1           0.000    
    105      4     41     26       109.1           109.1           0.000    
    106      5     41     26       109.1           109.1           0.000    
    107      4     41     25       109.1           109.1           0.000    
    108      5     41     25       109.1           109.1           0.000    
    109      4     41     24       109.1           109.1           0.000    
    110      5     41     24       109.1           109.1           0.000    
    111      4     41     23       109.1           109.1           0.000    
    112      5     41     23       109.1           109.1           0.000    
    113      4     41     22       109.1           109.1           0.000    
    114      5     41     22       109.1           109.1           0.000    
    115      4     42     22       109.1           109.1           0.000    
    116      5     42     22       109.1           109.1           0.000    
    117      4     42     21       109.1           109.1           0.000    
    118      5     42     21       109.1           109.1           0.000    
    119      4     42     20       109.1           109.1           0.000    
    120      5     42     20       109.1           109.1           0.000    
    121      4     42     19       109.1           109.1           0.000    
    122      5     42     19       109.1           109.1           0.000    
    123      4     43     18       109.1           109.1           0.000    
    124      5     43     18       109.1           109.1           0.000    
    125      4     42     18       109.1           109.1           0.000    
    126      5     42     18       109.1           109.1           0.000    
    127      4     42     17       109.1           109.1           0.000    
    128      5     42     17       109.1           109.1           0.000    
    129      4     42     16       109.1           109.1           0.000    
    130      5     42     16       109.1           109.1           0.000    
    131      4     42     15       109.1           109.1           0.000    
    132      5     42     15       109.1           109.1           0.000    
    133      4     43     15       109.1           109.1           0.000    
    134      5     43     15       109.1           109.1           0.000    
    135      4     43     14       109.1           109.1           0.000    
    136      5     43     14       109.1           109.1           0.000    
    137      4     43     13       109.1           109.1           0.000    
    138      5     43     13       109.1           109.1           0.000    
    139      4     43     12       109.1           109.1           0.000    
    140      5     43     12       109.1           109.1           0.000    
    141      4     43     11       109.1           109.1           0.000    
    142      5     43     11       109.1           109.1           0.000    
    143      4     43     10       109.1           109.1           0.000    
    144      5     43     10       109.1           109.1           0.000    
    145      4     44     10       109.1           109.1           0.000    
    146      5     44     10       109.1           109.1           0.000    
    147      4     44      9       109.1           109.1           0.000    
    148      5     44      9       109.1           109.1           0.000    
    149      4     44      8       109.1           109.1           0.000    
    150      5     44      8       109.1           109.1           0.000    
    151      4     44      7       109.1           109.1           0.000    
    152      5     44      7       109.1           109.1           0.000    
    153      4     44      6       109.1           109.1           0.000    
    154      5     44      6       109.1           109.1           0.000    
    155      4     44      5       109.1           109.1           0.000    
    156      5     44      5       109.1           109.1           0.000    
    157      4     44      4       109.1           109.1           0.000    
    158      5     44      4       109.1           109.1           0.000    
    159      4     44      3       109.1           109.1           0.000    
    160      5     44      3       109.1           109.1           0.000    
    161      4     45      3       109.1           109.1           0.000    
    162      5     45      3       109.1           109.1           0.000    
    163      4     45      2       109.1           109.1           0.000    
    164      5     45      2       109.1           109.1           0.000    
    165      4     45      1       109.1           109.1           0.000    
    166      5     45      1       109.1           109.1           0.000    


    166 TIME-VARIANT SPECIFIED-HEAD CELLS

 SOLVING FOR HEAD 

 CELL CONVERSIONS FOR ITER.=  2  LAYER=  2  STEP=  1  PERIOD=  10   (ROW,COL)
    DRY( 18,  8)   DRY( 21,  9)   DRY( 27,  8)   


     3 CALLS TO PCG ROUTINE FOR TIME STEP   1 IN STRESS PERIOD   10
    49 TOTAL ITERATIONS

 MAXIMUM HEAD CHANGE FOR EACH ITERATION (1 INDICATES THE FIRST INNER ITERATION):

    HEAD CHANGE    HEAD CHANGE    HEAD CHANGE    HEAD CHANGE    HEAD CHANGE 
   LAYER,ROW,COL  LAYER,ROW,COL  LAYER,ROW,COL  LAYER,ROW,COL  LAYER,ROW,COL
 ---------------------------------------------------------------------------
  1  0.9081E-01  0  0.4575E-01  0 -0.4946E-01  0  0.5791E-01  0 -0.3709E-01
   (  5, 43,  5)  (  5, 30,  1)  (  5, 41,  1)  (  5, 38,  1)  (  5, 35,  1)
  0 -0.2247E-01  0  0.1563E-01  0  0.9533E-02  0  0.1001E-01  0 -0.7565E-02
   (  5, 38,  1)  (  5, 41,  5)  (  5, 32,  5)  (  5, 37,  1)  (  5, 40,  4)
  0  0.6538E-02  0 -0.3882E-02  0 -0.3000E-02  0  0.2053E-02  0 -0.1992E-02
   (  5, 39,  1)  (  5, 19,  6)  (  5, 36,  5)  (  5, 41,  1)  (  5, 27,  9)
  0 -0.1123E-02  0 -0.6549E-03  0  0.6289E-03  0 -0.5868E-03  0  0.3961E-03
   (  5, 36,  7)  (  5, 30,  2)  (  5, 29,  1)  (  5, 35,  4)  (  5, 34,  1)
  0 -0.3831E-03  0  0.2885E-03  0 -0.2117E-03  0  0.1214E-03  0  0.1117E-03
   (  5, 37,  1)  (  5, 40,  2)  (  5, 12,  2)  (  5, 41,  2)  (  5, 15,  1)
  0 -0.9749E-04  0  0.4708E-04  0 -0.4461E-04  0 -0.3753E-04  0 -0.2448E-04
   (  5, 14,  1)  (  5, 38,  1)  (  5, 36,  1)  (  5, 14,  2)  (  5, 41,  2)
  1 -0.5952E-04  0  0.6876E-04  0 -0.8060E-04  0  0.4165E-04  0 -0.3820E-04
   (  5, 34,  2)  (  5, 33,  2)  (  5, 37,  1)  (  5, 38,  3)  (  5, 27,  1)
  0 -0.2578E-04  0  0.2382E-04  0 -0.1629E-04  0  0.1003E-04  0  0.7785E-05
   (  5, 39,  2)  (  5, 38,  1)  (  5, 36,  1)  (  5, 21,  1)  (  5, 15,  1)
  0 -0.6842E-05  0 -0.5421E-05  0 -0.4551E-05  0  0.3572E-05  0 -0.2223E-05
   (  5, 39,  1)  (  5, 34,  2)  (  5, 41,  1)  (  5, 40,  1)  (  5, 41,  1)
  0 -0.1104E-05  0 -0.1038E-05  0  0.8653E-06  1 -0.8307E-06
   (  5, 35,  1)  (  5, 22,  6)  (  5, 33,  1)  (  5, 31,  1)

 MAXIMUM RESIDUAL FOR EACH ITERATION (1 INDICATES THE FIRST INNER ITERATION):

    RESIDUAL       RESIDUAL       RESIDUAL       RESIDUAL       RESIDUAL    
   LAYER,ROW,COL  LAYER,ROW,COL  LAYER,ROW,COL  LAYER,ROW,COL  LAYER,ROW,COL
 ---------------------------------------------------------------------------
  1 -0.3131E-03  0 -0.2270E-03  0 -0.1810E-03  0 -0.1439E-03  0  0.1278E-03
   (  4, 44,  2)  (  3, 40, 27)  (  3, 40, 27)  (  3, 40, 27)  (  4, 43,  6)
  0  0.1157E-03  0  0.9045E-04  0  0.7545E-04  0  0.6056E-04  0  0.4968E-04
   (  4, 43,  5)  (  4, 43,  4)  (  4, 43,  4)  (  4, 43,  4)  (  4, 44,  2)
  0  0.3974E-04  0  0.3117E-04  0  0.2240E-04  0  0.1515E-04  0  0.1050E-04
   (  4, 44,  2)  (  4, 44,  2)  (  4, 44,  2)  (  4, 44,  2)  (  4, 44,  2)
  0  0.7760E-05  0  0.5891E-05  0  0.5237E-05  0  0.4204E-05  0  0.3377E-05
   (  4, 34, 35)  (  4, 34, 35)  (  4, 34, 35)  (  4, 34, 35)  (  4, 34, 35)
  0  0.2947E-05  0  0.2052E-05  0  0.1481E-05  0  0.9862E-06  0  0.6811E-06
   (  4, 34, 35)  (  4, 34, 35)  (  4, 34, 35)  (  4, 34, 35)  (  4, 34, 35)
  0  0.4695E-06  0  0.3382E-06  0 -0.2569E-06  0 -0.1948E-06  0 -0.1431E-06
   (  4, 34, 35)  (  4, 34, 35)  (  3,  3,  2)  (  4, 42,  3)  (  4, 42,  3)
  1 -0.5795E-06  0 -0.3543E-06  0 -0.2035E-06  0 -0.1219E-06  0 -0.1024E-06
   (  3, 44,  5)  (  3, 44,  5)  (  3, 44,  5)  (  2,  2, 26)  (  2,  2, 26)
  0 -0.9207E-07  0  0.1022E-06  0  0.1020E-06  0  0.9243E-07  0  0.7457E-07
   (  4, 43,  5)  (  3, 44,  5)  (  3, 44,  5)  (  3, 44,  5)  (  3, 44,  5)
  0  0.5240E-07  0  0.3230E-07  0  0.1621E-07  0 -0.9985E-08  0 -0.7550E-08
   (  3, 44,  5)  (  3, 44,  5)  (  3, 44,  5)  (  2,  2, 26)  (  2,  2, 26)
  0 -0.5636E-08  0  0.4834E-08  0  0.4307E-08  1  0.4237E-08
   (  2,  2, 26)  (  4, 43,  4)  (  4, 43,  4)  (  4, 43,  4)



 OUTPUT CONTROL FOR STRESS PERIOD   10   TIME STEP    1
    SAVE HEAD FOR ALL LAYERS
    SAVE DRAWDOWN FOR ALL LAYERS
    SAVE BUDGET
    PRINT BUDGET
 UBDSV1 SAVING "         STORAGE" ON UNIT   9 AT TIME STEP  1, STRESS PERIOD  10
 UBDSV2 SAVING "   CONSTANT HEAD" ON UNIT   9 AT TIME STEP  1, STRESS PERIOD  10
 UBDSV1 SAVING "FLOW RIGHT FACE " ON UNIT   9 AT TIME STEP  1, STRESS PERIOD  10
 UBDSV1 SAVING "FLOW FRONT FACE " ON UNIT   9 AT TIME STEP  1, STRESS PERIOD  10
 UBDSV1 SAVING "FLOW LOWER FACE " ON UNIT   9 AT TIME STEP  1, STRESS PERIOD  10
 UBDSV3 SAVING "        RECHARGE" ON UNIT   9 AT TIME STEP  1, STRESS PERIOD  10

 HEAD WILL BE SAVED ON UNIT   37 AT END OF TIME STEP    1, STRESS PERIOD   10

 DRAWDOWN WILL BE SAVED ON UNIT   38 AT END OF TIME STEP    1, STRESS PERIOD   10
1
  VOLUMETRIC BUDGET FOR ENTIRE MODEL AT END OF TIME STEP    1, STRESS PERIOD  10
  ------------------------------------------------------------------------------

     CUMULATIVE VOLUMES      L**3       RATES FOR THIS TIME STEP      L**3/T
     ------------------                 ------------------------

           IN:                                      IN:
           ---                                      ---
             STORAGE =        5710.0107               STORAGE =       8.0987E-04
       CONSTANT HEAD =        2176.1074         CONSTANT HEAD =       2.8073E-03
            RECHARGE =         132.3590              RECHARGE =       1.0213E-04

            TOTAL IN =        8018.4771              TOTAL IN =       3.7193E-03

          OUT:                                     OUT:
          ----                                     ----
             STORAGE =          13.4948               STORAGE =       1.5619E-04
       CONSTANT HEAD =        8005.1401         CONSTANT HEAD =       3.5633E-03
            RECHARGE =           0.0000              RECHARGE =           0.0000

           TOTAL OUT =        8018.6348             TOTAL OUT =       3.7195E-03

            IN - OUT =          -0.1577              IN - OUT =      -1.4715E-07

 PERCENT DISCREPANCY =          -0.00     PERCENT DISCREPANCY =          -0.00






         TIME SUMMARY AT END OF TIME STEP    1 IN STRESS PERIOD   10
                    SECONDS     MINUTES      HOURS       DAYS        YEARS
                    -----------------------------------------------------------
   TIME STEP LENGTH  86400.      1440.0      24.000      1.0000     2.73785E-03
 STRESS PERIOD TIME  86400.      1440.0      24.000      1.0000     2.73785E-03
         TOTAL TIME 1.29600E+06  21600.      360.00      15.000     4.10678E-02
1
1
                            STRESS PERIOD NO.   11, LENGTH =   86400.00    
                            -----------------------------------------------

                              NUMBER OF TIME STEPS =     1

                               MULTIPLIER FOR DELT =     1.000

                            INITIAL TIME STEP SIZE =   86400.00    

 REUSING RECH FROM LAST STRESS PERIOD

 CHD NO.   LAYER   ROW   COL    START HEAD        END HEAD         IFACE           
 ----------------------------------------------------------------------------------
      1      4      3      1       109.4           109.4           0.000    
      2      5      3      1       109.4           109.4           0.000    
      3      4      3      2       109.4           109.4           0.000    
      4      5      3      2       109.4           109.4           0.000    
      5      4      3      3       109.4           109.4           0.000    
      6      5      3      3       109.4           109.4           0.000    
      7      4      3      4       109.4           109.4           0.000    
      8      5      3      4       109.4           109.4           0.000    
      9      4      3      5       109.4           109.4           0.000    
     10      5      3      5       109.4           109.4           0.000    
     11      4      3      6       109.4           109.4           0.000    
     12      5      3      6       109.4           109.4           0.000    
     13      4      3      7       109.4           109.4           0.000    
     14      5      3      7       109.4           109.4           0.000    
     15      4      3      8       109.4           109.4           0.000    
     16      5      3      8       109.4           109.4           0.000    
     17      4      2      8       109.4           109.4           0.000    
     18      5      2      8       109.4           109.4           0.000    
     19      4      2      9       109.4           109.4           0.000    
     20      5      2      9       109.4           109.4           0.000    
     21      4      2     10       109.4           109.4           0.000    
     22      5      2     10       109.4           109.4           0.000    
     23      4      2     11       109.4           109.4           0.000    
     24      5      2     11       109.4           109.4           0.000    
     25      4      2     12       109.4           109.4           0.000    
     26      5      2     12       109.4           109.4           0.000    
     27      4      2     13       109.4           109.4           0.000    
     28      5      2     13       109.4           109.4           0.000    
     29      4      2     14       109.4           109.4           0.000    
     30      5      2     14       109.4           109.4           0.000    
     31      4      2     15       109.4           109.4           0.000    
     32      5      2     15       109.4           109.4           0.000    
     33      4      2     16       109.4           109.4           0.000    
     34      5      2     16       109.4           109.4           0.000    
     35      4      2     17       109.4           109.4           0.000    
     36      5      2     17       109.4           109.4           0.000    
     37      4      2     18       109.4           109.4           0.000    
     38      5      2     18       109.4           109.4           0.000    
     39      4      2     19       109.4           109.4           0.000    
     40      5      2     19       109.4           109.4           0.000    
     41      4      2     20       109.4           109.4           0.000    
     42      5      2     20       109.4           109.4           0.000    
     43      4      2     21       109.4           109.4           0.000    
     44      5      2     21       109.4           109.4           0.000    
     45      4      2     22       109.4           109.4           0.000    
     46      5      2     22       109.4           109.4           0.000    
     47      4      2     23       109.4           109.4           0.000    
     48      5      2     23       109.4           109.4           0.000    
     49      4      2     24       109.4           109.4           0.000    
     50      5      2     24       109.4           109.4           0.000    
     51      4      2     25       109.4           109.4           0.000    
     52      5      2     25       109.4           109.4           0.000    
     53      4      2     26       109.4           109.4           0.000    
     54      5      2     26       109.4           109.4           0.000    
     55      4      1     26       109.4           109.4           0.000    
     56      5      1     26       109.4           109.4           0.000    
     57      4      1     27       109.4           109.4           0.000    
     58      5      1     27       109.4           109.4           0.000    
     59      4      1     28       109.4           109.4           0.000    
     60      5      1     28       109.4           109.4           0.000    
     61      4      1     29       109.4           109.4           0.000    
     62      5      1     29       109.4           109.4           0.000    
     63      4      1     30       109.4           109.4           0.000    
     64      5      1     30       109.4           109.4           0.000    
     65      4      1     31       109.4           109.4           0.000    
     66      5      1     31       109.4           109.4           0.000    
     67      4      1     32       109.4           109.4           0.000    
     68      5      1     32       109.4           109.4           0.000    
     69      4      1     33       109.4           109.4           0.000    
     70      5      1     33       109.4           109.4           0.000    
     71      4      1     34       109.4           109.4           0.000    
     72      5      1     34       109.4           109.4           0.000    
     73      4      1     35       109.4           109.4           0.000    
     74      5      1     35       109.4           109.4           0.000    
     75      4     36     35       109.1           109.1           0.000    
     76      5     36     35       109.1           109.1           0.000    
     77      4     35     34       109.1           109.1           0.000    
     78      5     35     34       109.1           109.1           0.000    
     79      4     36     34       109.1           109.1           0.000    
     80      5     36     34       109.1           109.1           0.000    
     81      4     36     33       109.1           109.1           0.000    
     82      5     36     33       109.1           109.1           0.000    
     83      4     36     32       109.1           109.1           0.000    
     84      5     36     32       109.1           109.1           0.000    
     85      4     37     32       109.1           109.1           0.000    
     86      5     37     32       109.1           109.1           0.000    
     87      4     37     31       109.1           109.1           0.000    
     88      5     37     31       109.1           109.1           0.000    
     89      4     38     31       109.1           109.1           0.000    
     90      5     38     31       109.1           109.1           0.000    
     91      4     38     30       109.1           109.1           0.000    
     92      5     38     30       109.1           109.1           0.000    
     93      4     39     30       109.1           109.1           0.000    
     94      5     39     30       109.1           109.1           0.000    
     95      4     39     29       109.1           109.1           0.000    
     96      5     39     29       109.1           109.1           0.000    
     97      4     40     29       109.1           109.1           0.000    
     98      5     40     29       109.1           109.1           0.000    
     99      4     40     28       109.1           109.1           0.000    
    100      5     40     28       109.1           109.1           0.000    
    101      4     40     27       109.1           109.1           0.000    
    102      5     40     27       109.1           109.1           0.000    
    103      4     41     27       109.1           109.1           0.000    
    104      5     41     27       109.1           109.1           0.000    
    105      4     41     26       109.1           109.1           0.000    
    106      5     41     26       109.1           109.1           0.000    
    107      4     41     25       109.1           109.1           0.000    
    108      5     41     25       109.1           109.1           0.000    
    109      4     41     24       109.1           109.1           0.000    
    110      5     41     24       109.1           109.1           0.000    
    111      4     41     23       109.1           109.1           0.000    
    112      5     41     23       109.1           109.1           0.000    
    113      4     41     22       109.1           109.1           0.000    
    114      5     41     22       109.1           109.1           0.000    
    115      4     42     22       109.1           109.1           0.000    
    116      5     42     22       109.1           109.1           0.000    
    117      4     42     21       109.1           109.1           0.000    
    118      5     42     21       109.1           109.1           0.000    
    119      4     42     20       109.1           109.1           0.000    
    120      5     42     20       109.1           109.1           0.000    
    121      4     42     19       109.1           109.1           0.000    
    122      5     42     19       109.1           109.1           0.000    
    123      4     43     18       109.1           109.1           0.000    
    124      5     43     18       109.1           109.1           0.000    
    125      4     42     18       109.1           109.1           0.000    
    126      5     42     18       109.1           109.1           0.000    
    127      4     42     17       109.1           109.1           0.000    
    128      5     42     17       109.1           109.1           0.000    
    129      4     42     16       109.1           109.1           0.000    
    130      5     42     16       109.1           109.1           0.000    
    131      4     42     15       109.1           109.1           0.000    
    132      5     42     15       109.1           109.1           0.000    
    133      4     43     15       109.1           109.1           0.000    
    134      5     43     15       109.1           109.1           0.000    
    135      4     43     14       109.1           109.1           0.000    
    136      5     43     14       109.1           109.1           0.000    
    137      4     43     13       109.1           109.1           0.000    
    138      5     43     13       109.1           109.1           0.000    
    139      4     43     12       109.1           109.1           0.000    
    140      5     43     12       109.1           109.1           0.000    
    141      4     43     11       109.1           109.1           0.000    
    142      5     43     11       109.1           109.1           0.000    
    143      4     43     10       109.1           109.1           0.000    
    144      5     43     10       109.1           109.1           0.000    
    145      4     44     10       109.1           109.1           0.000    
    146      5     44     10       109.1           109.1           0.000    
    147      4     44      9       109.1           109.1           0.000    
    148      5     44      9       109.1           109.1           0.000    
    149      4     44      8       109.1           109.1           0.000    
    150      5     44      8       109.1           109.1           0.000    
    151      4     44      7       109.1           109.1           0.000    
    152      5     44      7       109.1           109.1           0.000    
    153      4     44      6       109.1           109.1           0.000    
    154      5     44      6       109.1           109.1           0.000    
    155      4     44      5       109.1           109.1           0.000    
    156      5     44      5       109.1           109.1           0.000    
    157      4     44      4       109.1           109.1           0.000    
    158      5     44      4       109.1           109.1           0.000    
    159      4     44      3       109.1           109.1           0.000    
    160      5     44      3       109.1           109.1           0.000    
    161      4     45      3       109.1           109.1           0.000    
    162      5     45      3       109.1           109.1           0.000    
    163      4     45      2       109.1           109.1           0.000    
    164      5     45      2       109.1           109.1           0.000    
    165      4     45      1       109.1           109.1           0.000    
    166      5     45      1       109.1           109.1           0.000    


    166 TIME-VARIANT SPECIFIED-HEAD CELLS

 SOLVING FOR HEAD 

 CELL CONVERSIONS FOR ITER.=  2  LAYER=  2  STEP=  1  PERIOD=  11   (ROW,COL)
    DRY( 19,  5)   DRY( 20,  3)   DRY( 21,  1)   DRY( 22,  9)   DRY( 28,  8)   
    DRY( 33,  7)   


     3 CALLS TO PCG ROUTINE FOR TIME STEP   1 IN STRESS PERIOD   11
    48 TOTAL ITERATIONS

 MAXIMUM HEAD CHANGE FOR EACH ITERATION (1 INDICATES THE FIRST INNER ITERATION):

    HEAD CHANGE    HEAD CHANGE    HEAD CHANGE    HEAD CHANGE    HEAD CHANGE 
   LAYER,ROW,COL  LAYER,ROW,COL  LAYER,ROW,COL  LAYER,ROW,COL  LAYER,ROW,COL
 ---------------------------------------------------------------------------
  1 -0.5354E-01  0  0.3232E-01  0  0.1687E-01  0 -0.1591E-01  0  0.1631E-01
   (  5, 43,  5)  (  5, 40,  1)  (  5, 43,  1)  (  5, 39,  1)  (  5, 35,  1)
  0 -0.1306E-01  0  0.8574E-02  0 -0.6290E-02  0  0.5097E-02  0 -0.3867E-02
   (  5, 34,  2)  (  5, 39,  1)  (  5, 36,  1)  (  5, 39,  5)  (  5, 38,  1)
  0 -0.3064E-02  0  0.1967E-02  0 -0.1667E-02  0  0.1009E-02  0 -0.7104E-03
   (  5, 37,  5)  (  5, 15,  1)  (  5, 14,  1)  (  5, 13,  1)  (  5, 14,  2)
  0  0.5977E-03  0 -0.4462E-03  0  0.2633E-03  0 -0.2669E-03  0  0.1530E-03
   (  5, 13,  2)  (  5, 12,  1)  (  5, 32,  2)  (  5, 38,  4)  (  5, 36,  4)
  0  0.1131E-03  0 -0.1140E-03  0  0.8228E-04  0  0.6074E-04  0 -0.4428E-04
   (  5, 38,  1)  (  5, 36,  1)  (  5, 37,  3)  (  5, 35,  6)  (  5, 37,  1)
  0  0.3055E-04  0 -0.2515E-04  0  0.1588E-04  0 -0.1823E-04  0  0.1344E-04
   (  5, 40,  2)  (  5, 38,  1)  (  5, 29, 10)  (  5, 35,  6)  (  5, 33,  6)
  1 -0.6850E-04  0 -0.4976E-04  0 -0.4414E-04  0 -0.3507E-04  0 -0.2175E-04
   (  3, 19,  5)  (  3, 19,  5)  (  3, 19,  5)  (  3, 19,  5)  (  3, 19,  5)
  0 -0.1686E-04  0 -0.1893E-04  0  0.1152E-04  0 -0.1095E-04  0  0.7980E-05
   (  5, 25,  2)  (  5, 35,  1)  (  5, 36,  1)  (  5, 38,  1)  (  5, 40,  2)
  0 -0.6812E-05  0  0.3416E-05  0 -0.4335E-05  0  0.2697E-05  0 -0.1886E-05
   (  5, 39,  1)  (  5, 15,  1)  (  5, 14,  1)  (  5, 14,  1)  (  5, 13,  1)
  0  0.1022E-05  0  0.8313E-06  1 -0.7229E-06
   (  5, 14,  2)  (  5, 29,  1)  (  5, 30,  1)

 MAXIMUM RESIDUAL FOR EACH ITERATION (1 INDICATES THE FIRST INNER ITERATION):

    RESIDUAL       RESIDUAL       RESIDUAL       RESIDUAL       RESIDUAL    
   LAYER,ROW,COL  LAYER,ROW,COL  LAYER,ROW,COL  LAYER,ROW,COL  LAYER,ROW,COL
 ---------------------------------------------------------------------------
  1  0.1187E-03  0  0.1007E-03  0  0.7943E-04  0 -0.6558E-04  0 -0.6106E-04
   (  4, 35, 35)  (  4, 35, 35)  (  4, 35, 35)  (  4, 43,  6)  (  4, 43,  5)
  0 -0.5127E-04  0 -0.4346E-04  0 -0.3376E-04  0 -0.2603E-04  0 -0.2063E-04
   (  4, 43,  5)  (  4, 43,  4)  (  4, 43,  4)  (  4, 43,  4)  (  4, 44,  2)
  0 -0.1648E-04  0 -0.1270E-04  0 -0.9690E-05  0 -0.6914E-05  0 -0.4786E-05
   (  4, 44,  2)  (  4, 44,  2)  (  4, 44,  2)  (  4, 44,  2)  (  4, 44,  2)
  0 -0.3359E-05  0 -0.2436E-05  0 -0.2169E-05  0 -0.1595E-05  0 -0.1175E-05
   (  4, 44,  2)  (  4, 34, 35)  (  4, 34, 35)  (  4, 34, 35)  (  4, 34, 35)
  0 -0.8585E-06  0 -0.6599E-06  0 -0.5210E-06  0 -0.3480E-06  0  0.2654E-06
   (  4, 34, 35)  (  4, 34, 35)  (  4, 34, 35)  (  4, 34, 35)  (  4, 35, 35)
  0  0.2177E-06  0  0.1690E-06  0  0.1154E-06  0  0.7779E-07  0  0.5172E-07
   (  4, 35, 35)  (  4, 35, 35)  (  4, 35, 35)  (  4, 35, 35)  (  4, 42,  3)
  1  0.3756E-06  0  0.2733E-06  0  0.1761E-06  0  0.1086E-06  0  0.6043E-07
   (  3, 19,  5)  (  3, 19,  5)  (  3, 19,  5)  (  3, 19,  5)  (  3, 19,  5)
  0 -0.4873E-07  0 -0.3923E-07  0  0.3584E-07  0  0.2906E-07  0 -0.2363E-07
   (  4, 19,  5)  (  2,  2, 26)  (  4, 19,  4)  (  4, 18,  5)  (  3, 44,  4)
  0  0.2232E-07  0  0.1686E-07  0 -0.1143E-07  0 -0.9759E-08  0 -0.7495E-08
   (  4, 19,  4)  (  4, 18,  5)  (  4, 43,  4)  (  4, 43,  4)  (  4, 43,  4)
  0 -0.5143E-08  0 -0.3633E-08  1 -0.3504E-08
   (  4, 43,  4)  (  4, 43,  4)  (  4, 43,  4)



 OUTPUT CONTROL FOR STRESS PERIOD   11   TIME STEP    1
    SAVE HEAD FOR ALL LAYERS
    SAVE DRAWDOWN FOR ALL LAYERS
    SAVE BUDGET
    PRINT BUDGET
 UBDSV1 SAVING "         STORAGE" ON UNIT   9 AT TIME STEP  1, STRESS PERIOD  11
 UBDSV2 SAVING "   CONSTANT HEAD" ON UNIT   9 AT TIME STEP  1, STRESS PERIOD  11
 UBDSV1 SAVING "FLOW RIGHT FACE " ON UNIT   9 AT TIME STEP  1, STRESS PERIOD  11
 UBDSV1 SAVING "FLOW FRONT FACE " ON UNIT   9 AT TIME STEP  1, STRESS PERIOD  11
 UBDSV1 SAVING "FLOW LOWER FACE " ON UNIT   9 AT TIME STEP  1, STRESS PERIOD  11
 UBDSV3 SAVING "        RECHARGE" ON UNIT   9 AT TIME STEP  1, STRESS PERIOD  11

 HEAD WILL BE SAVED ON UNIT   37 AT END OF TIME STEP    1, STRESS PERIOD   11

 DRAWDOWN WILL BE SAVED ON UNIT   38 AT END OF TIME STEP    1, STRESS PERIOD   11
1
  VOLUMETRIC BUDGET FOR ENTIRE MODEL AT END OF TIME STEP    1, STRESS PERIOD  11
  ------------------------------------------------------------------------------

     CUMULATIVE VOLUMES      L**3       RATES FOR THIS TIME STEP      L**3/T
     ------------------                 ------------------------

           IN:                                      IN:
           ---                                      ---
             STORAGE =        5775.2295               STORAGE =       7.5485E-04
       CONSTANT HEAD =        2430.8848         CONSTANT HEAD =       2.9488E-03
            RECHARGE =         141.1830              RECHARGE =       1.0213E-04

            TOTAL IN =        8347.2969              TOTAL IN =       3.8058E-03

          OUT:                                     OUT:
          ----                                     ----
             STORAGE =          13.4948               STORAGE =           0.0000
       CONSTANT HEAD =        8333.9697         CONSTANT HEAD =       3.8059E-03
            RECHARGE =           0.0000              RECHARGE =           0.0000

           TOTAL OUT =        8347.4648             TOTAL OUT =       3.8059E-03

            IN - OUT =          -0.1680              IN - OUT =      -1.0594E-07

 PERCENT DISCREPANCY =          -0.00     PERCENT DISCREPANCY =          -0.00






         TIME SUMMARY AT END OF TIME STEP    1 IN STRESS PERIOD   11
                    SECONDS     MINUTES      HOURS       DAYS        YEARS
                    -----------------------------------------------------------
   TIME STEP LENGTH  86400.      1440.0      24.000      1.0000     2.73785E-03
 STRESS PERIOD TIME  86400.      1440.0      24.000      1.0000     2.73785E-03
         TOTAL TIME 1.38240E+06  23040.      384.00      16.000     4.38056E-02
1
1
                            STRESS PERIOD NO.   12, LENGTH =   86400.00    
                            -----------------------------------------------

                              NUMBER OF TIME STEPS =     1

                               MULTIPLIER FOR DELT =     1.000

                            INITIAL TIME STEP SIZE =   86400.00    

 REUSING RECH FROM LAST STRESS PERIOD

 CHD NO.   LAYER   ROW   COL    START HEAD        END HEAD         IFACE           
 ----------------------------------------------------------------------------------
      1      4      3      1       109.4           109.4           0.000    
      2      5      3      1       109.4           109.4           0.000    
      3      4      3      2       109.4           109.4           0.000    
      4      5      3      2       109.4           109.4           0.000    
      5      4      3      3       109.4           109.4           0.000    
      6      5      3      3       109.4           109.4           0.000    
      7      4      3      4       109.4           109.4           0.000    
      8      5      3      4       109.4           109.4           0.000    
      9      4      3      5       109.4           109.4           0.000    
     10      5      3      5       109.4           109.4           0.000    
     11      4      3      6       109.4           109.4           0.000    
     12      5      3      6       109.4           109.4           0.000    
     13      4      3      7       109.4           109.4           0.000    
     14      5      3      7       109.4           109.4           0.000    
     15      4      3      8       109.4           109.4           0.000    
     16      5      3      8       109.4           109.4           0.000    
     17      4      2      8       109.4           109.4           0.000    
     18      5      2      8       109.4           109.4           0.000    
     19      4      2      9       109.4           109.4           0.000    
     20      5      2      9       109.4           109.4           0.000    
     21      4      2     10       109.4           109.4           0.000    
     22      5      2     10       109.4           109.4           0.000    
     23      4      2     11       109.4           109.4           0.000    
     24      5      2     11       109.4           109.4           0.000    
     25      4      2     12       109.4           109.4           0.000    
     26      5      2     12       109.4           109.4           0.000    
     27      4      2     13       109.4           109.4           0.000    
     28      5      2     13       109.4           109.4           0.000    
     29      4      2     14       109.4           109.4           0.000    
     30      5      2     14       109.4           109.4           0.000    
     31      4      2     15       109.4           109.4           0.000    
     32      5      2     15       109.4           109.4           0.000    
     33      4      2     16       109.4           109.4           0.000    
     34      5      2     16       109.4           109.4           0.000    
     35      4      2     17       109.4           109.4           0.000    
     36      5      2     17       109.4           109.4           0.000    
     37      4      2     18       109.4           109.4           0.000    
     38      5      2     18       109.4           109.4           0.000    
     39      4      2     19       109.4           109.4           0.000    
     40      5      2     19       109.4           109.4           0.000    
     41      4      2     20       109.4           109.4           0.000    
     42      5      2     20       109.4           109.4           0.000    
     43      4      2     21       109.4           109.4           0.000    
     44      5      2     21       109.4           109.4           0.000    
     45      4      2     22       109.4           109.4           0.000    
     46      5      2     22       109.4           109.4           0.000    
     47      4      2     23       109.4           109.4           0.000    
     48      5      2     23       109.4           109.4           0.000    
     49      4      2     24       109.4           109.4           0.000    
     50      5      2     24       109.4           109.4           0.000    
     51      4      2     25       109.4           109.4           0.000    
     52      5      2     25       109.4           109.4           0.000    
     53      4      2     26       109.4           109.4           0.000    
     54      5      2     26       109.4           109.4           0.000    
     55      4      1     26       109.4           109.4           0.000    
     56      5      1     26       109.4           109.4           0.000    
     57      4      1     27       109.4           109.4           0.000    
     58      5      1     27       109.4           109.4           0.000    
     59      4      1     28       109.4           109.4           0.000    
     60      5      1     28       109.4           109.4           0.000    
     61      4      1     29       109.4           109.4           0.000    
     62      5      1     29       109.4           109.4           0.000    
     63      4      1     30       109.4           109.4           0.000    
     64      5      1     30       109.4           109.4           0.000    
     65      4      1     31       109.4           109.4           0.000    
     66      5      1     31       109.4           109.4           0.000    
     67      4      1     32       109.4           109.4           0.000    
     68      5      1     32       109.4           109.4           0.000    
     69      4      1     33       109.4           109.4           0.000    
     70      5      1     33       109.4           109.4           0.000    
     71      4      1     34       109.4           109.4           0.000    
     72      5      1     34       109.4           109.4           0.000    
     73      4      1     35       109.4           109.4           0.000    
     74      5      1     35       109.4           109.4           0.000    
     75      4     36     35       109.1           109.1           0.000    
     76      5     36     35       109.1           109.1           0.000    
     77      4     35     34       109.1           109.1           0.000    
     78      5     35     34       109.1           109.1           0.000    
     79      4     36     34       109.1           109.1           0.000    
     80      5     36     34       109.1           109.1           0.000    
     81      4     36     33       109.1           109.1           0.000    
     82      5     36     33       109.1           109.1           0.000    
     83      4     36     32       109.1           109.1           0.000    
     84      5     36     32       109.1           109.1           0.000    
     85      4     37     32       109.1           109.1           0.000    
     86      5     37     32       109.1           109.1           0.000    
     87      4     37     31       109.1           109.1           0.000    
     88      5     37     31       109.1           109.1           0.000    
     89      4     38     31       109.1           109.1           0.000    
     90      5     38     31       109.1           109.1           0.000    
     91      4     38     30       109.1           109.1           0.000    
     92      5     38     30       109.1           109.1           0.000    
     93      4     39     30       109.1           109.1           0.000    
     94      5     39     30       109.1           109.1           0.000    
     95      4     39     29       109.1           109.1           0.000    
     96      5     39     29       109.1           109.1           0.000    
     97      4     40     29       109.1           109.1           0.000    
     98      5     40     29       109.1           109.1           0.000    
     99      4     40     28       109.1           109.1           0.000    
    100      5     40     28       109.1           109.1           0.000    
    101      4     40     27       109.1           109.1           0.000    
    102      5     40     27       109.1           109.1           0.000    
    103      4     41     27       109.1           109.1           0.000    
    104      5     41     27       109.1           109.1           0.000    
    105      4     41     26       109.1           109.1           0.000    
    106      5     41     26       109.1           109.1           0.000    
    107      4     41     25       109.1           109.1           0.000    
    108      5     41     25       109.1           109.1           0.000    
    109      4     41     24       109.1           109.1           0.000    
    110      5     41     24       109.1           109.1           0.000    
    111      4     41     23       109.1           109.1           0.000    
    112      5     41     23       109.1           109.1           0.000    
    113      4     41     22       109.1           109.1           0.000    
    114      5     41     22       109.1           109.1           0.000    
    115      4     42     22       109.1           109.1           0.000    
    116      5     42     22       109.1           109.1           0.000    
    117      4     42     21       109.1           109.1           0.000    
    118      5     42     21       109.1           109.1           0.000    
    119      4     42     20       109.1           109.1           0.000    
    120      5     42     20       109.1           109.1           0.000    
    121      4     42     19       109.1           109.1           0.000    
    122      5     42     19       109.1           109.1           0.000    
    123      4     43     18       109.1           109.1           0.000    
    124      5     43     18       109.1           109.1           0.000    
    125      4     42     18       109.1           109.1           0.000    
    126      5     42     18       109.1           109.1           0.000    
    127      4     42     17       109.1           109.1           0.000    
    128      5     42     17       109.1           109.1           0.000    
    129      4     42     16       109.1           109.1           0.000    
    130      5     42     16       109.1           109.1           0.000    
    131      4     42     15       109.1           109.1           0.000    
    132      5     42     15       109.1           109.1           0.000    
    133      4     43     15       109.1           109.1           0.000    
    134      5     43     15       109.1           109.1           0.000    
    135      4     43     14       109.1           109.1           0.000    
    136      5     43     14       109.1           109.1           0.000    
    137      4     43     13       109.1           109.1           0.000    
    138      5     43     13       109.1           109.1           0.000    
    139      4     43     12       109.1           109.1           0.000    
    140      5     43     12       109.1           109.1           0.000    
    141      4     43     11       109.1           109.1           0.000    
    142      5     43     11       109.1           109.1           0.000    
    143      4     43     10       109.1           109.1           0.000    
    144      5     43     10       109.1           109.1           0.000    
    145      4     44     10       109.1           109.1           0.000    
    146      5     44     10       109.1           109.1           0.000    
    147      4     44      9       109.1           109.1           0.000    
    148      5     44      9       109.1           109.1           0.000    
    149      4     44      8       109.1           109.1           0.000    
    150      5     44      8       109.1           109.1           0.000    
    151      4     44      7       109.1           109.1           0.000    
    152      5     44      7       109.1           109.1           0.000    
    153      4     44      6       109.1           109.1           0.000    
    154      5     44      6       109.1           109.1           0.000    
    155      4     44      5       109.1           109.1           0.000    
    156      5     44      5       109.1           109.1           0.000    
    157      4     44      4       109.1           109.1           0.000    
    158      5     44      4       109.1           109.1           0.000    
    159      4     44      3       109.1           109.1           0.000    
    160      5     44      3       109.1           109.1           0.000    
    161      4     45      3       109.1           109.1           0.000    
    162      5     45      3       109.1           109.1           0.000    
    163      4     45      2       109.1           109.1           0.000    
    164      5     45      2       109.1           109.1           0.000    
    165      4     45      1       109.1           109.1           0.000    
    166      5     45      1       109.1           109.1           0.000    


    166 TIME-VARIANT SPECIFIED-HEAD CELLS

 SOLVING FOR HEAD 

 CELL CONVERSIONS FOR ITER.=  2  LAYER=  2  STEP=  1  PERIOD=  12   (ROW,COL)
    DRY( 18,  7)   DRY( 23,  9)   


     3 CALLS TO PCG ROUTINE FOR TIME STEP   1 IN STRESS PERIOD   12
    46 TOTAL ITERATIONS

 MAXIMUM HEAD CHANGE FOR EACH ITERATION (1 INDICATES THE FIRST INNER ITERATION):

    HEAD CHANGE    HEAD CHANGE    HEAD CHANGE    HEAD CHANGE    HEAD CHANGE 
   LAYER,ROW,COL  LAYER,ROW,COL  LAYER,ROW,COL  LAYER,ROW,COL  LAYER,ROW,COL
 ---------------------------------------------------------------------------
  1 -0.2854E-01  0  0.1127E-01  0 -0.8857E-02  0  0.7179E-02  0 -0.6564E-02
   (  3,  4,  4)  (  5, 30,  1)  (  5, 30,  1)  (  5, 38,  1)  (  5, 35,  1)
  0  0.4816E-02  0 -0.3683E-02  0  0.4330E-02  0 -0.2810E-02  0 -0.1631E-02
   (  5, 34,  2)  (  5, 19,  1)  (  5, 38,  1)  (  5, 40,  1)  (  5, 33,  5)
  0  0.1102E-02  0 -0.8489E-03  0  0.6262E-03  0 -0.4055E-03  0 -0.4187E-03
   (  5, 14,  1)  (  5, 14,  1)  (  5, 30, 10)  (  5, 27,  9)  (  5, 40,  1)
  0  0.2469E-03  0 -0.2357E-03  0  0.1697E-03  0  0.1737E-03  0 -0.1703E-03
   (  5, 39,  1)  (  5, 34,  1)  (  5, 34,  2)  (  5, 13,  1)  (  5, 13,  1)
  0  0.8099E-04  0  0.6874E-04  0 -0.5183E-04  0 -0.3270E-04  0  0.2269E-04
   (  5, 16,  1)  (  5, 36,  1)  (  5, 15,  1)  (  5, 12,  1)  (  5, 12,  2)
  0 -0.1571E-04  0 -0.1469E-04  0  0.1376E-04  0 -0.1004E-04  0  0.6913E-05
   (  5, 12,  2)  (  5, 37,  1)  (  5, 39,  1)  (  5, 41,  1)  (  5, 31,  2)
  1 -0.2751E-04  0 -0.3315E-04  0 -0.1815E-04  0  0.1543E-04  0 -0.1675E-04
   (  5, 32,  1)  (  3, 18,  7)  (  5, 25,  4)  (  5, 25,  2)  (  5, 26,  2)
  0 -0.1266E-04  0  0.1176E-04  0 -0.8622E-05  0  0.4161E-05  0 -0.3014E-05
   (  5, 37,  2)  (  5, 37,  1)  (  5, 39,  1)  (  5, 20,  2)  (  5, 22,  3)
  0 -0.4009E-05  0  0.2582E-05  0 -0.1931E-05  0 -0.1588E-05  0  0.7874E-06
   (  5, 39,  1)  (  5, 40,  1)  (  5, 40,  1)  (  5, 13,  3)  (  5, 12,  2)
  1  0.6978E-06
   (  5, 31,  1)

 MAXIMUM RESIDUAL FOR EACH ITERATION (1 INDICATES THE FIRST INNER ITERATION):

    RESIDUAL       RESIDUAL       RESIDUAL       RESIDUAL       RESIDUAL    
   LAYER,ROW,COL  LAYER,ROW,COL  LAYER,ROW,COL  LAYER,ROW,COL  LAYER,ROW,COL
 ---------------------------------------------------------------------------
  1  0.7400E-04  0  0.6397E-04  0 -0.5592E-04  0 -0.4649E-04  0 -0.3850E-04
   (  3,  3,  1)  (  3,  3,  1)  (  3,  4,  4)  (  3,  4,  4)  (  3,  4,  3)
  0 -0.2984E-04  0 -0.2047E-04  0 -0.1695E-04  0 -0.1384E-04  0 -0.1047E-04
   (  3,  4,  3)  (  3,  3,  9)  (  3,  3,  9)  (  3,  3,  9)  (  3,  3,  9)
  0 -0.7844E-05  0 -0.5694E-05  0 -0.4203E-05  0 -0.3165E-05  0 -0.2591E-05
   (  3,  3,  9)  (  3,  3,  9)  (  3,  3,  9)  (  3,  3,  8)  (  3,  3,  7)
  0 -0.2145E-05  0 -0.1888E-05  0 -0.1424E-05  0 -0.1023E-05  0 -0.7117E-06
   (  3,  3,  7)  (  3,  3,  7)  (  3,  3,  2)  (  3,  3,  2)  (  3,  3,  2)
  0 -0.4959E-06  0 -0.4095E-06  0 -0.3101E-06  0 -0.2215E-06  0 -0.1634E-06
   (  3,  3,  2)  (  3,  3,  2)  (  3,  3,  2)  (  3,  3,  2)  (  3,  3,  2)
  0  0.1152E-06  0  0.1010E-06  0  0.7818E-07  0  0.5648E-07  0  0.4663E-07
   (  3,  3,  9)  (  3,  3,  9)  (  3,  3,  9)  (  3,  3,  9)  (  3,  3,  9)
  1 -0.1799E-06  0 -0.1434E-06  0 -0.1079E-06  0 -0.8508E-07  0 -0.6359E-07
   (  2,  2, 26)  (  2,  2, 26)  (  2,  2, 26)  (  2,  2, 26)  (  2,  2, 26)
  0 -0.4817E-07  0 -0.3702E-07  0 -0.3080E-07  0 -0.2546E-07  0 -0.2115E-07
   (  2,  2, 26)  (  2,  2, 26)  (  2,  2, 26)  (  2,  2, 26)  (  2,  2, 26)
  0 -0.1664E-07  0 -0.1262E-07  0 -0.9001E-08  0 -0.6351E-08  0 -0.4832E-08
   (  2,  2, 26)  (  2,  2, 26)  (  2,  2, 26)  (  2,  2, 26)  (  2,  2, 26)
  1 -0.4615E-08
   (  2,  2, 26)



 OUTPUT CONTROL FOR STRESS PERIOD   12   TIME STEP    1
    SAVE HEAD FOR ALL LAYERS
    SAVE DRAWDOWN FOR ALL LAYERS
    SAVE BUDGET
    PRINT BUDGET
 UBDSV1 SAVING "         STORAGE" ON UNIT   9 AT TIME STEP  1, STRESS PERIOD  12
 UBDSV2 SAVING "   CONSTANT HEAD" ON UNIT   9 AT TIME STEP  1, STRESS PERIOD  12
 UBDSV1 SAVING "FLOW RIGHT FACE " ON UNIT   9 AT TIME STEP  1, STRESS PERIOD  12
 UBDSV1 SAVING "FLOW FRONT FACE " ON UNIT   9 AT TIME STEP  1, STRESS PERIOD  12
 UBDSV1 SAVING "FLOW LOWER FACE " ON UNIT   9 AT TIME STEP  1, STRESS PERIOD  12
 UBDSV3 SAVING "        RECHARGE" ON UNIT   9 AT TIME STEP  1, STRESS PERIOD  12

 HEAD WILL BE SAVED ON UNIT   37 AT END OF TIME STEP    1, STRESS PERIOD   12

 DRAWDOWN WILL BE SAVED ON UNIT   38 AT END OF TIME STEP    1, STRESS PERIOD   12
1
  VOLUMETRIC BUDGET FOR ENTIRE MODEL AT END OF TIME STEP    1, STRESS PERIOD  12
  ------------------------------------------------------------------------------

     CUMULATIVE VOLUMES      L**3       RATES FOR THIS TIME STEP      L**3/T
     ------------------                 ------------------------

           IN:                                      IN:
           ---                                      ---
             STORAGE =        5818.0908               STORAGE =       4.9608E-04
       CONSTANT HEAD =        2671.0417         CONSTANT HEAD =       2.7796E-03
            RECHARGE =         150.0069              RECHARGE =       1.0213E-04

            TOTAL IN =        8639.1396              TOTAL IN =       3.3778E-03

          OUT:                                     OUT:
          ----                                     ----
             STORAGE =          13.6599               STORAGE =       1.9110E-06
       CONSTANT HEAD =        8625.6572         CONSTANT HEAD =       3.3760E-03
            RECHARGE =           0.0000              RECHARGE =           0.0000

           TOTAL OUT =        8639.3174             TOTAL OUT =       3.3779E-03

            IN - OUT =          -0.1777              IN - OUT =      -1.2293E-07

 PERCENT DISCREPANCY =          -0.00     PERCENT DISCREPANCY =          -0.00






         TIME SUMMARY AT END OF TIME STEP    1 IN STRESS PERIOD   12
                    SECONDS     MINUTES      HOURS       DAYS        YEARS
                    -----------------------------------------------------------
   TIME STEP LENGTH  86400.      1440.0      24.000      1.0000     2.73785E-03
 STRESS PERIOD TIME  86400.      1440.0      24.000      1.0000     2.73785E-03
         TOTAL TIME 1.46880E+06  24480.      408.00      17.000     4.65435E-02
1
1
                            STRESS PERIOD NO.   13, LENGTH =   86400.00    
                            -----------------------------------------------

                              NUMBER OF TIME STEPS =     1

                               MULTIPLIER FOR DELT =     1.000

                            INITIAL TIME STEP SIZE =   86400.00    

 REUSING RECH FROM LAST STRESS PERIOD

 CHD NO.   LAYER   ROW   COL    START HEAD        END HEAD         IFACE           
 ----------------------------------------------------------------------------------
      1      4      3      1       109.4           109.4           0.000    
      2      5      3      1       109.4           109.4           0.000    
      3      4      3      2       109.4           109.4           0.000    
      4      5      3      2       109.4           109.4           0.000    
      5      4      3      3       109.4           109.4           0.000    
      6      5      3      3       109.4           109.4           0.000    
      7      4      3      4       109.4           109.4           0.000    
      8      5      3      4       109.4           109.4           0.000    
      9      4      3      5       109.4           109.4           0.000    
     10      5      3      5       109.4           109.4           0.000    
     11      4      3      6       109.4           109.4           0.000    
     12      5      3      6       109.4           109.4           0.000    
     13      4      3      7       109.4           109.4           0.000    
     14      5      3      7       109.4           109.4           0.000    
     15      4      3      8       109.4           109.4           0.000    
     16      5      3      8       109.4           109.4           0.000    
     17      4      2      8       109.4           109.4           0.000    
     18      5      2      8       109.4           109.4           0.000    
     19      4      2      9       109.4           109.4           0.000    
     20      5      2      9       109.4           109.4           0.000    
     21      4      2     10       109.4           109.4           0.000    
     22      5      2     10       109.4           109.4           0.000    
     23      4      2     11       109.4           109.4           0.000    
     24      5      2     11       109.4           109.4           0.000    
     25      4      2     12       109.4           109.4           0.000    
     26      5      2     12       109.4           109.4           0.000    
     27      4      2     13       109.4           109.4           0.000    
     28      5      2     13       109.4           109.4           0.000    
     29      4      2     14       109.4           109.4           0.000    
     30      5      2     14       109.4           109.4           0.000    
     31      4      2     15       109.4           109.4           0.000    
     32      5      2     15       109.4           109.4           0.000    
     33      4      2     16       109.4           109.4           0.000    
     34      5      2     16       109.4           109.4           0.000    
     35      4      2     17       109.4           109.4           0.000    
     36      5      2     17       109.4           109.4           0.000    
     37      4      2     18       109.4           109.4           0.000    
     38      5      2     18       109.4           109.4           0.000    
     39      4      2     19       109.4           109.4           0.000    
     40      5      2     19       109.4           109.4           0.000    
     41      4      2     20       109.4           109.4           0.000    
     42      5      2     20       109.4           109.4           0.000    
     43      4      2     21       109.4           109.4           0.000    
     44      5      2     21       109.4           109.4           0.000    
     45      4      2     22       109.4           109.4           0.000    
     46      5      2     22       109.4           109.4           0.000    
     47      4      2     23       109.4           109.4           0.000    
     48      5      2     23       109.4           109.4           0.000    
     49      4      2     24       109.4           109.4           0.000    
     50      5      2     24       109.4           109.4           0.000    
     51      4      2     25       109.4           109.4           0.000    
     52      5      2     25       109.4           109.4           0.000    
     53      4      2     26       109.4           109.4           0.000    
     54      5      2     26       109.4           109.4           0.000    
     55      4      1     26       109.4           109.4           0.000    
     56      5      1     26       109.4           109.4           0.000    
     57      4      1     27       109.4           109.4           0.000    
     58      5      1     27       109.4           109.4           0.000    
     59      4      1     28       109.4           109.4           0.000    
     60      5      1     28       109.4           109.4           0.000    
     61      4      1     29       109.4           109.4           0.000    
     62      5      1     29       109.4           109.4           0.000    
     63      4      1     30       109.4           109.4           0.000    
     64      5      1     30       109.4           109.4           0.000    
     65      4      1     31       109.4           109.4           0.000    
     66      5      1     31       109.4           109.4           0.000    
     67      4      1     32       109.4           109.4           0.000    
     68      5      1     32       109.4           109.4           0.000    
     69      4      1     33       109.4           109.4           0.000    
     70      5      1     33       109.4           109.4           0.000    
     71      4      1     34       109.4           109.4           0.000    
     72      5      1     34       109.4           109.4           0.000    
     73      4      1     35       109.4           109.4           0.000    
     74      5      1     35       109.4           109.4           0.000    
     75      4     36     35       109.1           109.1           0.000    
     76      5     36     35       109.1           109.1           0.000    
     77      4     35     34       109.1           109.1           0.000    
     78      5     35     34       109.1           109.1           0.000    
     79      4     36     34       109.1           109.1           0.000    
     80      5     36     34       109.1           109.1           0.000    
     81      4     36     33       109.1           109.1           0.000    
     82      5     36     33       109.1           109.1           0.000    
     83      4     36     32       109.1           109.1           0.000    
     84      5     36     32       109.1           109.1           0.000    
     85      4     37     32       109.1           109.1           0.000    
     86      5     37     32       109.1           109.1           0.000    
     87      4     37     31       109.1           109.1           0.000    
     88      5     37     31       109.1           109.1           0.000    
     89      4     38     31       109.1           109.1           0.000    
     90      5     38     31       109.1           109.1           0.000    
     91      4     38     30       109.1           109.1           0.000    
     92      5     38     30       109.1           109.1           0.000    
     93      4     39     30       109.1           109.1           0.000    
     94      5     39     30       109.1           109.1           0.000    
     95      4     39     29       109.1           109.1           0.000    
     96      5     39     29       109.1           109.1           0.000    
     97      4     40     29       109.1           109.1           0.000    
     98      5     40     29       109.1           109.1           0.000    
     99      4     40     28       109.1           109.1           0.000    
    100      5     40     28       109.1           109.1           0.000    
    101      4     40     27       109.1           109.1           0.000    
    102      5     40     27       109.1           109.1           0.000    
    103      4     41     27       109.1           109.1           0.000    
    104      5     41     27       109.1           109.1           0.000    
    105      4     41     26       109.1           109.1           0.000    
    106      5     41     26       109.1           109.1           0.000    
    107      4     41     25       109.1           109.1           0.000    
    108      5     41     25       109.1           109.1           0.000    
    109      4     41     24       109.1           109.1           0.000    
    110      5     41     24       109.1           109.1           0.000    
    111      4     41     23       109.1           109.1           0.000    
    112      5     41     23       109.1           109.1           0.000    
    113      4     41     22       109.1           109.1           0.000    
    114      5     41     22       109.1           109.1           0.000    
    115      4     42     22       109.1           109.1           0.000    
    116      5     42     22       109.1           109.1           0.000    
    117      4     42     21       109.1           109.1           0.000    
    118      5     42     21       109.1           109.1           0.000    
    119      4     42     20       109.1           109.1           0.000    
    120      5     42     20       109.1           109.1           0.000    
    121      4     42     19       109.1           109.1           0.000    
    122      5     42     19       109.1           109.1           0.000    
    123      4     43     18       109.1           109.1           0.000    
    124      5     43     18       109.1           109.1           0.000    
    125      4     42     18       109.1           109.1           0.000    
    126      5     42     18       109.1           109.1           0.000    
    127      4     42     17       109.1           109.1           0.000    
    128      5     42     17       109.1           109.1           0.000    
    129      4     42     16       109.1           109.1           0.000    
    130      5     42     16       109.1           109.1           0.000    
    131      4     42     15       109.1           109.1           0.000    
    132      5     42     15       109.1           109.1           0.000    
    133      4     43     15       109.1           109.1           0.000    
    134      5     43     15       109.1           109.1           0.000    
    135      4     43     14       109.1           109.1           0.000    
    136      5     43     14       109.1           109.1           0.000    
    137      4     43     13       109.1           109.1           0.000    
    138      5     43     13       109.1           109.1           0.000    
    139      4     43     12       109.1           109.1           0.000    
    140      5     43     12       109.1           109.1           0.000    
    141      4     43     11       109.1           109.1           0.000    
    142      5     43     11       109.1           109.1           0.000    
    143      4     43     10       109.1           109.1           0.000    
    144      5     43     10       109.1           109.1           0.000    
    145      4     44     10       109.1           109.1           0.000    
    146      5     44     10       109.1           109.1           0.000    
    147      4     44      9       109.1           109.1           0.000    
    148      5     44      9       109.1           109.1           0.000    
    149      4     44      8       109.1           109.1           0.000    
    150      5     44      8       109.1           109.1           0.000    
    151      4     44      7       109.1           109.1           0.000    
    152      5     44      7       109.1           109.1           0.000    
    153      4     44      6       109.1           109.1           0.000    
    154      5     44      6       109.1           109.1           0.000    
    155      4     44      5       109.1           109.1           0.000    
    156      5     44      5       109.1           109.1           0.000    
    157      4     44      4       109.1           109.1           0.000    
    158      5     44      4       109.1           109.1           0.000    
    159      4     44      3       109.1           109.1           0.000    
    160      5     44      3       109.1           109.1           0.000    
    161      4     45      3       109.1           109.1           0.000    
    162      5     45      3       109.1           109.1           0.000    
    163      4     45      2       109.1           109.1           0.000    
    164      5     45      2       109.1           109.1           0.000    
    165      4     45      1       109.1           109.1           0.000    
    166      5     45      1       109.1           109.1           0.000    


    166 TIME-VARIANT SPECIFIED-HEAD CELLS

 SOLVING FOR HEAD 

 CELL CONVERSIONS FOR ITER.=  2  LAYER=  2  STEP=  1  PERIOD=  13   (ROW,COL)
    DRY( 24,  9)   DRY( 29,  8)   DRY( 34,  7)   DRY( 39,  6)   


     3 CALLS TO PCG ROUTINE FOR TIME STEP   1 IN STRESS PERIOD   13
    46 TOTAL ITERATIONS

 MAXIMUM HEAD CHANGE FOR EACH ITERATION (1 INDICATES THE FIRST INNER ITERATION):

    HEAD CHANGE    HEAD CHANGE    HEAD CHANGE    HEAD CHANGE    HEAD CHANGE 
   LAYER,ROW,COL  LAYER,ROW,COL  LAYER,ROW,COL  LAYER,ROW,COL  LAYER,ROW,COL
 ---------------------------------------------------------------------------
  1 -0.3255E-01  0  0.2018E-01  0 -0.1403E-01  0  0.9775E-02  0 -0.7576E-02
   (  5, 43,  5)  (  5, 40,  1)  (  5, 36,  1)  (  5, 34,  2)  (  5, 41,  1)
  0  0.6923E-02  0 -0.4229E-02  0  0.3406E-02  0  0.2938E-02  0 -0.1962E-02
   (  5, 38,  1)  (  5, 35,  2)  (  5, 40,  1)  (  5, 39,  5)  (  5, 38,  1)
  0 -0.1894E-02  0  0.1147E-02  0 -0.7977E-03  0 -0.5264E-03  0  0.5103E-03
   (  5, 38,  5)  (  5, 35,  5)  (  5, 14,  1)  (  5, 37,  8)  (  5, 35,  8)
  0  0.2801E-03  0 -0.2396E-03  0 -0.1736E-03  0  0.1443E-03  0 -0.9694E-04
   (  5, 13,  1)  (  5, 12,  1)  (  5, 33,  1)  (  5, 33,  3)  (  5, 40,  2)
  0  0.7161E-04  0 -0.7736E-04  0  0.4432E-04  0  0.3172E-04  0 -0.3138E-04
   (  5, 38,  1)  (  5, 36,  1)  (  5, 37,  3)  (  5, 33, 11)  (  5, 37,  1)
  0  0.1938E-04  0 -0.1731E-04  0  0.1055E-04  0 -0.9193E-05  0  0.5307E-05
   (  5, 40,  2)  (  5, 38,  1)  (  5, 29, 10)  (  5, 27,  9)  (  5, 31,  9)
  1 -0.2227E-04  0  0.2465E-04  0 -0.2687E-04  0  0.1462E-04  0 -0.1202E-04
   (  3, 24,  9)  (  5, 34,  1)  (  5, 33,  1)  (  5, 22,  1)  (  5, 26,  2)
  0  0.9082E-05  0  0.6626E-05  0 -0.1018E-04  0  0.3743E-05  0  0.2548E-05
   (  5, 28,  2)  (  5, 36,  1)  (  5, 38,  1)  (  5, 40,  2)  (  5, 13,  1)
  0 -0.2183E-05  0  0.1549E-05  0  0.1586E-05  0 -0.1107E-05  0  0.6597E-06
   (  5, 30, 10)  (  5, 16,  2)  (  5, 29,  9)  (  5, 13,  3)  (  5, 13,  2)
  1 -0.4794E-06
   (  5, 13,  2)

 MAXIMUM RESIDUAL FOR EACH ITERATION (1 INDICATES THE FIRST INNER ITERATION):

    RESIDUAL       RESIDUAL       RESIDUAL       RESIDUAL       RESIDUAL    
   LAYER,ROW,COL  LAYER,ROW,COL  LAYER,ROW,COL  LAYER,ROW,COL  LAYER,ROW,COL
 ---------------------------------------------------------------------------
  1  0.6784E-04  0  0.5785E-04  0  0.4395E-04  0 -0.3977E-04  0 -0.3524E-04
   (  4, 35, 35)  (  4, 35, 35)  (  4, 35, 35)  (  4, 43,  6)  (  4, 43,  5)
  0 -0.2973E-04  0 -0.2545E-04  0 -0.2024E-04  0 -0.1556E-04  0 -0.1248E-04
   (  4, 43,  5)  (  4, 43,  4)  (  4, 43,  4)  (  4, 43,  4)  (  4, 44,  2)
  0 -0.1000E-04  0 -0.7652E-05  0 -0.5780E-05  0 -0.4129E-05  0 -0.2873E-05
   (  4, 44,  2)  (  4, 44,  2)  (  4, 44,  2)  (  4, 44,  2)  (  4, 44,  2)
  0 -0.1993E-05  0 -0.1386E-05  0 -0.1104E-05  0 -0.9062E-06  0 -0.6806E-06
   (  4, 44,  2)  (  4, 44,  2)  (  4, 34, 35)  (  4, 34, 35)  (  4, 34, 35)
  0 -0.4890E-06  0 -0.4053E-06  0 -0.2860E-06  0  0.2018E-06  0  0.1554E-06
   (  4, 34, 35)  (  4, 34, 35)  (  4, 34, 35)  (  4, 35, 35)  (  4, 35, 35)
  0  0.1296E-06  0  0.9447E-07  0  0.6315E-07  0 -0.4455E-07  0 -0.3057E-07
   (  4, 35, 35)  (  4, 35, 35)  (  4, 35, 35)  (  3,  3,  2)  (  3,  3,  2)
  1  0.2329E-06  0  0.1789E-06  0  0.9709E-07  0  0.6166E-07  0 -0.3596E-07
   (  3, 24,  9)  (  3, 24,  9)  (  3, 24,  9)  (  3, 24,  9)  (  2,  2, 26)
  0 -0.2967E-07  0 -0.2334E-07  0  0.2075E-07  0  0.1902E-07  0  0.1685E-07
   (  2,  2, 26)  (  2,  2, 26)  (  4, 44,  1)  (  4, 44,  1)  (  4, 44,  1)
  0  0.1453E-07  0  0.1172E-07  0  0.9268E-08  0  0.6921E-08  0  0.5031E-08
   (  4, 44,  1)  (  4, 44,  1)  (  4, 44,  1)  (  4, 44,  1)  (  4, 44,  1)
  1  0.4602E-08
   (  4, 44,  1)



 OUTPUT CONTROL FOR STRESS PERIOD   13   TIME STEP    1
    SAVE HEAD FOR ALL LAYERS
    SAVE DRAWDOWN FOR ALL LAYERS
    SAVE BUDGET
    PRINT BUDGET
 UBDSV1 SAVING "         STORAGE" ON UNIT   9 AT TIME STEP  1, STRESS PERIOD  13
 UBDSV2 SAVING "   CONSTANT HEAD" ON UNIT   9 AT TIME STEP  1, STRESS PERIOD  13
 UBDSV1 SAVING "FLOW RIGHT FACE " ON UNIT   9 AT TIME STEP  1, STRESS PERIOD  13
 UBDSV1 SAVING "FLOW FRONT FACE " ON UNIT   9 AT TIME STEP  1, STRESS PERIOD  13
 UBDSV1 SAVING "FLOW LOWER FACE " ON UNIT   9 AT TIME STEP  1, STRESS PERIOD  13
 UBDSV3 SAVING "        RECHARGE" ON UNIT   9 AT TIME STEP  1, STRESS PERIOD  13

 HEAD WILL BE SAVED ON UNIT   37 AT END OF TIME STEP    1, STRESS PERIOD   13

 DRAWDOWN WILL BE SAVED ON UNIT   38 AT END OF TIME STEP    1, STRESS PERIOD   13
1
  VOLUMETRIC BUDGET FOR ENTIRE MODEL AT END OF TIME STEP    1, STRESS PERIOD  13
  ------------------------------------------------------------------------------

     CUMULATIVE VOLUMES      L**3       RATES FOR THIS TIME STEP      L**3/T
     ------------------                 ------------------------

           IN:                                      IN:
           ---                                      ---
             STORAGE =        5858.8750               STORAGE =       4.7204E-04
       CONSTANT HEAD =        2915.8887         CONSTANT HEAD =       2.8339E-03
            RECHARGE =         158.8309              RECHARGE =       1.0213E-04

            TOTAL IN =        8933.5947              TOTAL IN =       3.4080E-03

          OUT:                                     OUT:
          ----                                     ----
             STORAGE =          13.6599               STORAGE =           0.0000
       CONSTANT HEAD =        8920.1221         CONSTANT HEAD =       3.4082E-03
            RECHARGE =           0.0000              RECHARGE =           0.0000

           TOTAL OUT =        8933.7822             TOTAL OUT =       3.4082E-03

            IN - OUT =          -0.1875              IN - OUT =      -1.1572E-07

 PERCENT DISCREPANCY =          -0.00     PERCENT DISCREPANCY =          -0.00






         TIME SUMMARY AT END OF TIME STEP    1 IN STRESS PERIOD   13
                    SECONDS     MINUTES      HOURS       DAYS        YEARS
                    -----------------------------------------------------------
   TIME STEP LENGTH  86400.      1440.0      24.000      1.0000     2.73785E-03
 STRESS PERIOD TIME  86400.      1440.0      24.000      1.0000     2.73785E-03
         TOTAL TIME 1.55520E+06  25920.      432.00      18.000     4.92813E-02
1
1
                            STRESS PERIOD NO.   14, LENGTH =   259200.0    
                            -----------------------------------------------

                              NUMBER OF TIME STEPS =     3

                               MULTIPLIER FOR DELT =     1.000

                            INITIAL TIME STEP SIZE =   86400.00    

 REUSING RECH FROM LAST STRESS PERIOD

 CHD NO.   LAYER   ROW   COL    START HEAD        END HEAD         IFACE           
 ----------------------------------------------------------------------------------
      1      4      3      1       109.4           109.3           0.000    
      2      5      3      1       109.4           109.3           0.000    
      3      4      3      2       109.4           109.3           0.000    
      4      5      3      2       109.4           109.3           0.000    
      5      4      3      3       109.4           109.3           0.000    
      6      5      3      3       109.4           109.3           0.000    
      7      4      3      4       109.4           109.3           0.000    
      8      5      3      4       109.4           109.3           0.000    
      9      4      3      5       109.4           109.3           0.000    
     10      5      3      5       109.4           109.3           0.000    
     11      4      3      6       109.4           109.3           0.000    
     12      5      3      6       109.4           109.3           0.000    
     13      4      3      7       109.4           109.3           0.000    
     14      5      3      7       109.4           109.3           0.000    
     15      4      3      8       109.4           109.3           0.000    
     16      5      3      8       109.4           109.3           0.000    
     17      4      2      8       109.4           109.3           0.000    
     18      5      2      8       109.4           109.3           0.000    
     19      4      2      9       109.4           109.3           0.000    
     20      5      2      9       109.4           109.3           0.000    
     21      4      2     10       109.4           109.3           0.000    
     22      5      2     10       109.4           109.3           0.000    
     23      4      2     11       109.4           109.3           0.000    
     24      5      2     11       109.4           109.3           0.000    
     25      4      2     12       109.4           109.3           0.000    
     26      5      2     12       109.4           109.3           0.000    
     27      4      2     13       109.4           109.3           0.000    
     28      5      2     13       109.4           109.3           0.000    
     29      4      2     14       109.4           109.3           0.000    
     30      5      2     14       109.4           109.3           0.000    
     31      4      2     15       109.4           109.3           0.000    
     32      5      2     15       109.4           109.3           0.000    
     33      4      2     16       109.4           109.3           0.000    
     34      5      2     16       109.4           109.3           0.000    
     35      4      2     17       109.4           109.3           0.000    
     36      5      2     17       109.4           109.3           0.000    
     37      4      2     18       109.4           109.3           0.000    
     38      5      2     18       109.4           109.3           0.000    
     39      4      2     19       109.4           109.3           0.000    
     40      5      2     19       109.4           109.3           0.000    
     41      4      2     20       109.4           109.3           0.000    
     42      5      2     20       109.4           109.3           0.000    
     43      4      2     21       109.4           109.3           0.000    
     44      5      2     21       109.4           109.3           0.000    
     45      4      2     22       109.4           109.3           0.000    
     46      5      2     22       109.4           109.3           0.000    
     47      4      2     23       109.4           109.3           0.000    
     48      5      2     23       109.4           109.3           0.000    
     49      4      2     24       109.4           109.3           0.000    
     50      5      2     24       109.4           109.3           0.000    
     51      4      2     25       109.4           109.3           0.000    
     52      5      2     25       109.4           109.3           0.000    
     53      4      2     26       109.4           109.3           0.000    
     54      5      2     26       109.4           109.3           0.000    
     55      4      1     26       109.4           109.3           0.000    
     56      5      1     26       109.4           109.3           0.000    
     57      4      1     27       109.4           109.3           0.000    
     58      5      1     27       109.4           109.3           0.000    
     59      4      1     28       109.4           109.3           0.000    
     60      5      1     28       109.4           109.3           0.000    
     61      4      1     29       109.4           109.3           0.000    
     62      5      1     29       109.4           109.3           0.000    
     63      4      1     30       109.4           109.3           0.000    
     64      5      1     30       109.4           109.3           0.000    
     65      4      1     31       109.4           109.3           0.000    
     66      5      1     31       109.4           109.3           0.000    
     67      4      1     32       109.4           109.3           0.000    
     68      5      1     32       109.4           109.3           0.000    
     69      4      1     33       109.4           109.3           0.000    
     70      5      1     33       109.4           109.3           0.000    
     71      4      1     34       109.4           109.3           0.000    
     72      5      1     34       109.4           109.3           0.000    
     73      4      1     35       109.4           109.3           0.000    
     74      5      1     35       109.4           109.3           0.000    
     75      4     36     35       109.1           109.0           0.000    
     76      5     36     35       109.1           109.0           0.000    
     77      4     35     34       109.1           109.0           0.000    
     78      5     35     34       109.1           109.0           0.000    
     79      4     36     34       109.1           109.0           0.000    
     80      5     36     34       109.1           109.0           0.000    
     81      4     36     33       109.1           109.0           0.000    
     82      5     36     33       109.1           109.0           0.000    
     83      4     36     32       109.1           109.0           0.000    
     84      5     36     32       109.1           109.0           0.000    
     85      4     37     32       109.1           109.0           0.000    
     86      5     37     32       109.1           109.0           0.000    
     87      4     37     31       109.1           109.0           0.000    
     88      5     37     31       109.1           109.0           0.000    
     89      4     38     31       109.1           109.0           0.000    
     90      5     38     31       109.1           109.0           0.000    
     91      4     38     30       109.1           109.0           0.000    
     92      5     38     30       109.1           109.0           0.000    
     93      4     39     30       109.1           109.0           0.000    
     94      5     39     30       109.1           109.0           0.000    
     95      4     39     29       109.1           109.0           0.000    
     96      5     39     29       109.1           109.0           0.000    
     97      4     40     29       109.1           109.0           0.000    
     98      5     40     29       109.1           109.0           0.000    
     99      4     40     28       109.1           109.0           0.000    
    100      5     40     28       109.1           109.0           0.000    
    101      4     40     27       109.1           109.0           0.000    
    102      5     40     27       109.1           109.0           0.000    
    103      4     41     27       109.1           109.0           0.000    
    104      5     41     27       109.1           109.0           0.000    
    105      4     41     26       109.1           109.0           0.000    
    106      5     41     26       109.1           109.0           0.000    
    107      4     41     25       109.1           109.0           0.000    
    108      5     41     25       109.1           109.0           0.000    
    109      4     41     24       109.1           109.0           0.000    
    110      5     41     24       109.1           109.0           0.000    
    111      4     41     23       109.1           109.0           0.000    
    112      5     41     23       109.1           109.0           0.000    
    113      4     41     22       109.1           109.0           0.000    
    114      5     41     22       109.1           109.0           0.000    
    115      4     42     22       109.1           109.0           0.000    
    116      5     42     22       109.1           109.0           0.000    
    117      4     42     21       109.1           109.0           0.000    
    118      5     42     21       109.1           109.0           0.000    
    119      4     42     20       109.1           109.0           0.000    
    120      5     42     20       109.1           109.0           0.000    
    121      4     42     19       109.1           109.0           0.000    
    122      5     42     19       109.1           109.0           0.000    
    123      4     43     18       109.1           109.0           0.000    
    124      5     43     18       109.1           109.0           0.000    
    125      4     42     18       109.1           109.0           0.000    
    126      5     42     18       109.1           109.0           0.000    
    127      4     42     17       109.1           109.0           0.000    
    128      5     42     17       109.1           109.0           0.000    
    129      4     42     16       109.1           109.0           0.000    
    130      5     42     16       109.1           109.0           0.000    
    131      4     42     15       109.1           109.0           0.000    
    132      5     42     15       109.1           109.0           0.000    
    133      4     43     15       109.1           109.0           0.000    
    134      5     43     15       109.1           109.0           0.000    
    135      4     43     14       109.1           109.0           0.000    
    136      5     43     14       109.1           109.0           0.000    
    137      4     43     13       109.1           109.0           0.000    
    138      5     43     13       109.1           109.0           0.000    
    139      4     43     12       109.1           109.0           0.000    
    140      5     43     12       109.1           109.0           0.000    
    141      4     43     11       109.1           109.0           0.000    
    142      5     43     11       109.1           109.0           0.000    
    143      4     43     10       109.1           109.0           0.000    
    144      5     43     10       109.1           109.0           0.000    
    145      4     44     10       109.1           109.0           0.000    
    146      5     44     10       109.1           109.0           0.000    
    147      4     44      9       109.1           109.0           0.000    
    148      5     44      9       109.1           109.0           0.000    
    149      4     44      8       109.1           109.0           0.000    
    150      5     44      8       109.1           109.0           0.000    
    151      4     44      7       109.1           109.0           0.000    
    152      5     44      7       109.1           109.0           0.000    
    153      4     44      6       109.1           109.0           0.000    
    154      5     44      6       109.1           109.0           0.000    
    155      4     44      5       109.1           109.0           0.000    
    156      5     44      5       109.1           109.0           0.000    
    157      4     44      4       109.1           109.0           0.000    
    158      5     44      4       109.1           109.0           0.000    
    159      4     44      3       109.1           109.0           0.000    
    160      5     44      3       109.1           109.0           0.000    
    161      4     45      3       109.1           109.0           0.000    
    162      5     45      3       109.1           109.0           0.000    
    163      4     45      2       109.1           109.0           0.000    
    164      5     45      2       109.1           109.0           0.000    
    165      4     45      1       109.1           109.0           0.000    
    166      5     45      1       109.1           109.0           0.000    


    166 TIME-VARIANT SPECIFIED-HEAD CELLS

 SOLVING FOR HEAD 

 CELL CONVERSIONS FOR ITER.=  2  LAYER=  2  STEP=  1  PERIOD=  14   (ROW,COL)
    DRY( 19,  4)   DRY( 19, 10)   DRY( 20,  2)   DRY( 20, 10)   DRY( 25,  9)   
    DRY( 30,  8)   DRY( 35,  7)   DRY( 40,  6)   


     3 CALLS TO PCG ROUTINE FOR TIME STEP   1 IN STRESS PERIOD   14
    51 TOTAL ITERATIONS

 MAXIMUM HEAD CHANGE FOR EACH ITERATION (1 INDICATES THE FIRST INNER ITERATION):

    HEAD CHANGE    HEAD CHANGE    HEAD CHANGE    HEAD CHANGE    HEAD CHANGE 
   LAYER,ROW,COL  LAYER,ROW,COL  LAYER,ROW,COL  LAYER,ROW,COL  LAYER,ROW,COL
 ---------------------------------------------------------------------------
  1 -0.1117      0  0.5917E-01  0  0.4068E-01  0 -0.4529E-01  0  0.3708E-01
   (  5, 43,  5)  (  5, 40,  1)  (  5, 42,  1)  (  5, 38,  1)  (  5, 35,  1)
  0 -0.2432E-01  0  0.1408E-01  0  0.9801E-02  0 -0.9586E-02  0  0.6943E-02
   (  5, 33,  2)  (  5, 31,  2)  (  5, 40,  1)  (  5, 37,  1)  (  5, 40,  5)
  0 -0.5159E-02  0  0.3488E-02  0  0.2694E-02  0 -0.2076E-02  0  0.1851E-02
   (  5, 39,  1)  (  5, 35,  5)  (  5, 42,  6)  (  5, 37,  8)  (  5, 35,  8)
  0  0.1036E-02  0 -0.8415E-03  0  0.7015E-03  0 -0.4459E-03  0 -0.4750E-03
   (  5, 39,  4)  (  5, 36,  3)  (  5, 31,  2)  (  5, 39,  1)  (  5, 14,  1)
  0 -0.3228E-03  0  0.2430E-03  0 -0.1702E-03  0 -0.1287E-03  0 -0.8136E-04
   (  5, 35,  1)  (  5, 38,  1)  (  5, 13,  1)  (  5, 36,  1)  (  5, 33,  6)
  0 -0.8839E-04  0  0.5640E-04  0 -0.4295E-04  0  0.2976E-04  0  0.2104E-04
   (  5, 38,  1)  (  5, 40,  2)  (  5, 13,  2)  (  5, 13,  2)  (  5, 37,  1)
  1 -0.8728E-04  0 -0.7435E-04  0 -0.9712E-04  0  0.5563E-04  0  0.3137E-04
   (  3, 19,  4)  (  3, 19,  4)  (  5, 32,  2)  (  5, 32,  2)  (  5, 23,  2)
  0  0.4225E-04  0 -0.2821E-04  0 -0.1587E-04  0 -0.1343E-04  0  0.8424E-05
   (  5, 37,  1)  (  5, 35,  2)  (  5, 29,  3)  (  5, 23,  6)  (  5, 19,  4)
  0 -0.8634E-05  0  0.7053E-05  0 -0.7418E-05  0  0.4471E-05  0 -0.2484E-05
   (  5, 17,  1)  (  5, 15,  1)  (  5, 14,  1)  (  5, 13,  1)  (  5, 14,  1)
  0 -0.1577E-05  0  0.1568E-05  0 -0.1383E-05  0  0.1453E-05  0 -0.7848E-06
   (  5, 30,  3)  (  5, 31,  1)  (  5, 32,  7)  (  5, 12,  1)  (  5, 12,  1)
  1  0.3984E-06
   (  5, 13,  1)

 MAXIMUM RESIDUAL FOR EACH ITERATION (1 INDICATES THE FIRST INNER ITERATION):

    RESIDUAL       RESIDUAL       RESIDUAL       RESIDUAL       RESIDUAL    
   LAYER,ROW,COL  LAYER,ROW,COL  LAYER,ROW,COL  LAYER,ROW,COL  LAYER,ROW,COL
 ---------------------------------------------------------------------------
  1  0.3068E-03  0  0.2609E-03  0  0.2066E-03  0  0.1647E-03  0  0.1388E-03
   (  4, 35, 35)  (  4, 35, 35)  (  4, 35, 35)  (  3, 40, 27)  (  3, 40, 27)
  0 -0.1102E-03  0 -0.8992E-04  0 -0.7604E-04  0 -0.6045E-04  0 -0.4648E-04
   (  4, 43,  5)  (  4, 43,  4)  (  4, 43,  4)  (  4, 43,  4)  (  4, 43,  4)
  0 -0.3360E-04  0 -0.2663E-04  0 -0.2013E-04  0 -0.1449E-04  0 -0.1051E-04
   (  4, 43,  4)  (  4, 44,  2)  (  4, 44,  2)  (  4, 44,  2)  (  4, 44,  2)
  0 -0.7735E-05  0 -0.6525E-05  0 -0.5642E-05  0 -0.4388E-05  0 -0.3383E-05
   (  4, 34, 35)  (  4, 34, 35)  (  4, 34, 35)  (  4, 34, 35)  (  4, 34, 35)
  0 -0.2665E-05  0 -0.2193E-05  0 -0.1606E-05  0 -0.1096E-05  0 -0.8150E-06
   (  4, 34, 35)  (  4, 34, 35)  (  4, 34, 35)  (  4, 34, 35)  (  4, 34, 35)
  0 -0.6454E-06  0  0.4788E-06  0  0.3548E-06  0  0.2434E-06  0  0.1670E-06
   (  4, 34, 35)  (  4, 35, 35)  (  4, 35, 35)  (  4, 35, 35)  (  4, 35, 35)
  1  0.5124E-06  0  0.3819E-06  0  0.1914E-06  0  0.1118E-06  0  0.1003E-06
   (  3, 19,  4)  (  3, 19,  4)  (  3, 19,  4)  (  3, 19,  4)  (  4, 43,  5)
  0  0.8874E-07  0  0.8296E-07  0  0.7452E-07  0  0.6439E-07  0  0.5776E-07
   (  4, 43,  2)  (  4, 43,  2)  (  4, 43,  2)  (  4, 44,  1)  (  4, 44,  1)
  0  0.5043E-07  0  0.4081E-07  0  0.3071E-07  0  0.2321E-07  0 -0.1694E-07
   (  4, 44,  1)  (  4, 44,  1)  (  4, 44,  1)  (  4, 44,  1)  (  4, 43,  4)
  0 -0.1243E-07  0 -0.1085E-07  0 -0.8511E-08  0 -0.6734E-08  0 -0.5018E-08
   (  4, 43,  4)  (  4, 43,  4)  (  4, 44,  2)  (  4, 44,  2)  (  4, 44,  2)
  1 -0.4601E-08
   (  4, 44,  2)



 OUTPUT CONTROL FOR STRESS PERIOD   14   TIME STEP    1
    SAVE HEAD FOR ALL LAYERS
    SAVE DRAWDOWN FOR ALL LAYERS
    SAVE BUDGET
    PRINT BUDGET
 UBDSV1 SAVING "         STORAGE" ON UNIT   9 AT TIME STEP  1, STRESS PERIOD  14
 UBDSV2 SAVING "   CONSTANT HEAD" ON UNIT   9 AT TIME STEP  1, STRESS PERIOD  14
 UBDSV1 SAVING "FLOW RIGHT FACE " ON UNIT   9 AT TIME STEP  1, STRESS PERIOD  14
 UBDSV1 SAVING "FLOW FRONT FACE " ON UNIT   9 AT TIME STEP  1, STRESS PERIOD  14
 UBDSV1 SAVING "FLOW LOWER FACE " ON UNIT   9 AT TIME STEP  1, STRESS PERIOD  14
 UBDSV3 SAVING "        RECHARGE" ON UNIT   9 AT TIME STEP  1, STRESS PERIOD  14

 HEAD WILL BE SAVED ON UNIT   37 AT END OF TIME STEP    1, STRESS PERIOD   14

 DRAWDOWN WILL BE SAVED ON UNIT   38 AT END OF TIME STEP    1, STRESS PERIOD   14
1
  VOLUMETRIC BUDGET FOR ENTIRE MODEL AT END OF TIME STEP    1, STRESS PERIOD  14
  ------------------------------------------------------------------------------

     CUMULATIVE VOLUMES      L**3       RATES FOR THIS TIME STEP      L**3/T
     ------------------                 ------------------------

           IN:                                      IN:
           ---                                      ---
             STORAGE =        5957.0117               STORAGE =       1.1358E-03
       CONSTANT HEAD =        3150.1326         CONSTANT HEAD =       2.7112E-03
            RECHARGE =         167.6548              RECHARGE =       1.0213E-04

            TOTAL IN =        9274.7998              TOTAL IN =       3.9491E-03

          OUT:                                     OUT:
          ----                                     ----
             STORAGE =          13.6599               STORAGE =           0.0000
       CONSTANT HEAD =        9261.3369         CONSTANT HEAD =       3.9492E-03
            RECHARGE =           0.0000              RECHARGE =           0.0000

           TOTAL OUT =        9274.9971             TOTAL OUT =       3.9492E-03

            IN - OUT =          -0.1973              IN - OUT =      -1.2387E-07

 PERCENT DISCREPANCY =          -0.00     PERCENT DISCREPANCY =          -0.00






         TIME SUMMARY AT END OF TIME STEP    1 IN STRESS PERIOD   14
                    SECONDS     MINUTES      HOURS       DAYS        YEARS
                    -----------------------------------------------------------
   TIME STEP LENGTH  86400.      1440.0      24.000      1.0000     2.73785E-03
 STRESS PERIOD TIME  86400.      1440.0      24.000      1.0000     2.73785E-03
         TOTAL TIME 1.64160E+06  27360.      456.00      19.000     5.20192E-02
1

 SOLVING FOR HEAD 

 CELL CONVERSIONS FOR ITER.=  2  LAYER=  2  STEP=  2  PERIOD=  14   (ROW,COL)
    DRY( 17,  8)   DRY( 18,  6)   DRY( 21, 10)   DRY( 26,  9)   DRY( 31,  8)   
    DRY( 32,  8)   DRY( 36,  7)   DRY( 37,  7)   DRY( 41,  6)   DRY( 42,  6)   

 CELL CONVERSIONS FOR ITER.=  3  LAYER=  2  STEP=  2  PERIOD=  14   (ROW,COL)
    DRY( 27,  9)   
     4 CALLS TO PCG ROUTINE FOR TIME STEP   2 IN STRESS PERIOD   14
    66 TOTAL ITERATIONS

 MAXIMUM HEAD CHANGE FOR EACH ITERATION (1 INDICATES THE FIRST INNER ITERATION):

    HEAD CHANGE    HEAD CHANGE    HEAD CHANGE    HEAD CHANGE    HEAD CHANGE 
   LAYER,ROW,COL  LAYER,ROW,COL  LAYER,ROW,COL  LAYER,ROW,COL  LAYER,ROW,COL
 ---------------------------------------------------------------------------
  1 -0.1146      0  0.6497E-01  0  0.4098E-01  0 -0.4388E-01  0  0.3470E-01
   (  5, 43,  5)  (  5, 39,  1)  (  5, 42,  1)  (  5, 39,  1)  (  5, 36,  1)
  0 -0.2418E-01  0  0.1767E-01  0  0.9941E-02  0  0.9762E-02  0 -0.7282E-02
   (  5, 33,  2)  (  5, 31,  2)  (  5, 40,  1)  (  5, 39,  5)  (  5, 36,  5)
  0 -0.5047E-02  0  0.3790E-02  0  0.2793E-02  0 -0.1894E-02  0  0.1943E-02
   (  5, 39,  1)  (  5, 35,  5)  (  5, 42,  6)  (  5, 37,  8)  (  5, 35,  8)
  0 -0.1163E-02  0 -0.8214E-03  0  0.5697E-03  0 -0.5533E-03  0 -0.4651E-03
   (  5, 33,  8)  (  5, 37,  4)  (  5, 33,  3)  (  5, 31,  1)  (  5, 14,  1)
  0 -0.3167E-03  0  0.2230E-03  0 -0.1735E-03  0  0.1181E-03  0 -0.1014E-03
   (  5, 35,  1)  (  5, 38,  1)  (  5, 36,  1)  (  5, 39,  1)  (  5, 12,  1)
  0  0.6011E-04  0 -0.6653E-04  0  0.4294E-04  0  0.3140E-04  0 -0.2027E-04
   (  5, 12,  1)  (  5, 38,  1)  (  5, 36,  1)  (  5, 13,  2)  (  5, 39,  1)
  1  0.6671E-03  0 -0.7761E-03  0  0.3016E-03  0 -0.1072E-03  0  0.6269E-04
   (  5, 27,  1)  (  5, 28,  1)  (  5, 33,  2)  (  5, 32,  1)  (  5, 36,  1)
  0 -0.6362E-04  0  0.4984E-04  0 -0.4216E-04  0  0.1806E-04  0  0.1427E-04
   (  5, 38,  1)  (  5, 36,  1)  (  5, 38,  1)  (  5, 19,  1)  (  5, 18,  6)
  0 -0.9932E-05  0  0.1153E-04  0 -0.8450E-05  0  0.5355E-05  0  0.4041E-05
   (  5, 32,  6)  (  5, 39,  1)  (  5, 40,  1)  (  5, 41,  1)  (  5, 33,  8)
  0 -0.2484E-05  0  0.2044E-05  0  0.2026E-05  0  0.1132E-05  0 -0.9727E-06
   (  5, 12,  1)  (  5, 31,  1)  (  5, 12,  1)  (  5, 34,  1)  (  5, 36,  1)
  1 -0.4791E-04  0 -0.3294E-04  0 -0.2885E-04  0 -0.1685E-04  0 -0.9378E-05
   (  3, 27,  9)  (  3, 27,  9)  (  3, 27,  9)  (  3, 27,  9)  (  5, 26,  7)
  0  0.7939E-05  0 -0.5952E-05  0 -0.5756E-05  0  0.5400E-05  0 -0.5240E-05
   (  5, 25,  4)  (  5, 25,  2)  (  5, 34,  1)  (  5, 37,  1)  (  5, 39,  1)
  0  0.3037E-05  0 -0.2373E-05  0 -0.1560E-05  0 -0.1088E-05  0 -0.8510E-06
   (  5, 39,  1)  (  5, 40,  1)  (  5, 34,  1)  (  5, 30,  1)  (  5, 25, 11)
  1  0.4790E-06
   (  5, 24, 11)

 MAXIMUM RESIDUAL FOR EACH ITERATION (1 INDICATES THE FIRST INNER ITERATION):

    RESIDUAL       RESIDUAL       RESIDUAL       RESIDUAL       RESIDUAL    
   LAYER,ROW,COL  LAYER,ROW,COL  LAYER,ROW,COL  LAYER,ROW,COL  LAYER,ROW,COL
 ---------------------------------------------------------------------------
  1  0.3132E-03  0  0.2668E-03  0  0.2076E-03  0  0.1594E-03  0  0.1301E-03
   (  4, 35, 35)  (  4, 35, 35)  (  4, 35, 35)  (  3, 40, 27)  (  3, 40, 27)
  0 -0.1083E-03  0 -0.9055E-04  0 -0.7676E-04  0 -0.6117E-04  0 -0.4688E-04
   (  4, 43,  5)  (  4, 43,  4)  (  4, 43,  4)  (  4, 43,  4)  (  4, 43,  4)
  0 -0.3446E-04  0 -0.2706E-04  0 -0.2051E-04  0 -0.1498E-04  0 -0.1087E-04
   (  4, 43,  4)  (  4, 44,  2)  (  4, 44,  2)  (  4, 44,  2)  (  4, 44,  2)
  0 -0.7718E-05  0 -0.6123E-05  0 -0.5475E-05  0 -0.4325E-05  0 -0.3300E-05
   (  4, 34, 35)  (  4, 34, 35)  (  4, 34, 35)  (  4, 34, 35)  (  4, 34, 35)
  0 -0.2514E-05  0 -0.2106E-05  0 -0.1544E-05  0 -0.1052E-05  0 -0.7212E-06
   (  4, 34, 35)  (  4, 34, 35)  (  4, 34, 35)  (  4, 34, 35)  (  4, 34, 35)
  0  0.5343E-06  0  0.4414E-06  0  0.3479E-06  0  0.2392E-06  0  0.1676E-06
   (  4, 35, 35)  (  4, 35, 35)  (  4, 35, 35)  (  4, 35, 35)  (  4, 35, 35)
  1 -0.3352E-03  0 -0.6894E-04  0 -0.2416E-04  0 -0.1357E-04  0 -0.1027E-04
   (  3, 27,  9)  (  3, 27,  9)  (  3, 27,  9)  (  3, 27,  9)  (  3, 27,  9)
  0 -0.7459E-05  0 -0.5087E-05  0 -0.3687E-05  0 -0.2370E-05  0 -0.1540E-05
   (  3, 27,  9)  (  3, 27,  9)  (  3, 27,  9)  (  3, 27,  9)  (  3, 27,  9)
  0 -0.9928E-06  0 -0.6862E-06  0  0.4374E-06  0  0.2855E-06  0  0.1810E-06
   (  3, 27,  9)  (  3, 27,  9)  (  2, 27,  9)  (  2, 27,  9)  (  2, 27,  9)
  0  0.1210E-06  0  0.1016E-06  0  0.6373E-07  0  0.4212E-07  0  0.3153E-07
   (  2, 27,  9)  (  2, 27,  9)  (  2, 27,  9)  (  2, 27,  9)  (  2, 27,  9)
  1  0.7750E-06  0  0.5742E-06  0  0.3754E-06  0  0.2449E-06  0  0.1717E-06
   (  3, 27,  9)  (  3, 27,  9)  (  3, 27,  9)  (  3, 27,  9)  (  3, 27,  9)
  0  0.1132E-06  0  0.7849E-07  0  0.5783E-07  0  0.4259E-07  0  0.3731E-07
   (  3, 27,  9)  (  3, 27,  9)  (  3, 27,  9)  (  4, 27,  8)  (  4, 27,  8)
  0  0.2855E-07  0  0.2121E-07  0  0.1514E-07  0  0.1085E-07  0  0.8398E-08
   (  4, 27,  8)  (  4, 27,  8)  (  4, 27,  8)  (  4, 27,  8)  (  4, 27,  8)
  1  0.7602E-08
   (  4, 27,  8)



 OUTPUT CONTROL FOR STRESS PERIOD   14   TIME STEP    2
    SAVE HEAD FOR ALL LAYERS
    SAVE DRAWDOWN FOR ALL LAYERS
    SAVE BUDGET
    PRINT BUDGET
 UBDSV1 SAVING "         STORAGE" ON UNIT   9 AT TIME STEP  2, STRESS PERIOD  14
 UBDSV2 SAVING "   CONSTANT HEAD" ON UNIT   9 AT TIME STEP  2, STRESS PERIOD  14
 UBDSV1 SAVING "FLOW RIGHT FACE " ON UNIT   9 AT TIME STEP  2, STRESS PERIOD  14
 UBDSV1 SAVING "FLOW FRONT FACE " ON UNIT   9 AT TIME STEP  2, STRESS PERIOD  14
 UBDSV1 SAVING "FLOW LOWER FACE " ON UNIT   9 AT TIME STEP  2, STRESS PERIOD  14
 UBDSV3 SAVING "        RECHARGE" ON UNIT   9 AT TIME STEP  2, STRESS PERIOD  14

 HEAD WILL BE SAVED ON UNIT   37 AT END OF TIME STEP    2, STRESS PERIOD   14

 DRAWDOWN WILL BE SAVED ON UNIT   38 AT END OF TIME STEP    2, STRESS PERIOD   14
1
  VOLUMETRIC BUDGET FOR ENTIRE MODEL AT END OF TIME STEP    2, STRESS PERIOD  14
  ------------------------------------------------------------------------------

     CUMULATIVE VOLUMES      L**3       RATES FOR THIS TIME STEP      L**3/T
     ------------------                 ------------------------

           IN:                                      IN:
           ---                                      ---
             STORAGE =        6071.2104               STORAGE =       1.3217E-03
       CONSTANT HEAD =        3387.0505         CONSTANT HEAD =       2.7421E-03
            RECHARGE =         176.4788              RECHARGE =       1.0213E-04

            TOTAL IN =        9634.7393              TOTAL IN =       4.1660E-03

          OUT:                                     OUT:
          ----                                     ----
             STORAGE =          13.6599               STORAGE =           0.0000
       CONSTANT HEAD =        9621.2891         CONSTANT HEAD =       4.1661E-03
            RECHARGE =           0.0000              RECHARGE =           0.0000

           TOTAL OUT =        9634.9492             TOTAL OUT =       4.1661E-03

            IN - OUT =          -0.2100              IN - OUT =      -1.3364E-07

 PERCENT DISCREPANCY =          -0.00     PERCENT DISCREPANCY =          -0.00






         TIME SUMMARY AT END OF TIME STEP    2 IN STRESS PERIOD   14
                    SECONDS     MINUTES      HOURS       DAYS        YEARS
                    -----------------------------------------------------------
   TIME STEP LENGTH  86400.      1440.0      24.000      1.0000     2.73785E-03
 STRESS PERIOD TIME 1.72800E+05  2880.0      48.000      2.0000     5.47570E-03
         TOTAL TIME 1.72800E+06  28800.      480.00      20.000     5.47570E-02
1

 SOLVING FOR HEAD 

 CELL CONVERSIONS FOR ITER.=  2  LAYER=  2  STEP=  3  PERIOD=  14   (ROW,COL)
    DRY( 18,  5)   DRY( 18, 10)   DRY( 19,  3)   DRY( 20,  1)   DRY( 22, 10)   
    DRY( 23, 10)   DRY( 28,  9)   DRY( 33,  8)   DRY( 34,  8)   DRY( 38,  7)   
    DRY( 39,  7)   DRY( 43,  6)   
     3 CALLS TO PCG ROUTINE FOR TIME STEP   3 IN STRESS PERIOD   14
    51 TOTAL ITERATIONS

 MAXIMUM HEAD CHANGE FOR EACH ITERATION (1 INDICATES THE FIRST INNER ITERATION):

    HEAD CHANGE    HEAD CHANGE    HEAD CHANGE    HEAD CHANGE    HEAD CHANGE 
   LAYER,ROW,COL  LAYER,ROW,COL  LAYER,ROW,COL  LAYER,ROW,COL  LAYER,ROW,COL
 ---------------------------------------------------------------------------
  1 -0.1155      0  0.6685E-01  0 -0.4307E-01  0 -0.4127E-01  0  0.2721E-01
   (  5, 43,  5)  (  5, 39,  1)  (  5, 36,  1)  (  5, 39,  1)  (  5, 36,  1)
  0  0.1745E-01  0 -0.1194E-01  0  0.1144E-01  0 -0.1137E-01  0  0.7250E-02
   (  5, 38,  1)  (  5, 35,  1)  (  5, 35,  3)  (  5, 37,  1)  (  5, 40,  5)
  0 -0.4902E-02  0  0.3880E-02  0  0.2791E-02  0 -0.1817E-02  0  0.1926E-02
   (  5, 38,  5)  (  5, 35,  5)  (  5, 42,  6)  (  5, 38,  8)  (  5, 35,  8)
  0 -0.1223E-02  0 -0.7062E-03  0  0.5388E-03  0 -0.4514E-03  0  0.3928E-03
   (  5, 33,  8)  (  5, 12,  1)  (  5, 15,  1)  (  5, 14,  1)  (  5, 37,  1)
  0 -0.3430E-03  0  0.1911E-03  0 -0.1379E-03  0 -0.1119E-03  0 -0.8848E-04
   (  5, 35,  1)  (  5, 28,  2)  (  5, 26,  5)  (  5, 36,  1)  (  5, 12,  1)
  0  0.6521E-04  0 -0.7187E-04  0 -0.4295E-04  0  0.3468E-04  0  0.1677E-04
   (  5, 40,  2)  (  5, 38,  1)  (  5, 12,  1)  (  5, 13,  2)  (  5, 41,  2)
  1 -0.1413E-03  0 -0.1499E-03  0 -0.9172E-04  0 -0.6081E-04  0  0.4681E-04
   (  3, 18,  5)  (  5, 31,  1)  (  3, 18,  5)  (  5, 39,  2)  (  5, 23,  2)
  0  0.3964E-04  0 -0.3671E-04  0 -0.2129E-04  0 -0.1414E-04  0 -0.1356E-04
   (  5, 37,  1)  (  5, 38,  1)  (  5, 29,  2)  (  5, 35,  3)  (  5, 40,  1)
  0 -0.8954E-05  0  0.7141E-05  0 -0.8884E-05  0  0.5142E-05  0 -0.3175E-05
   (  5, 18,  1)  (  5, 16,  1)  (  5, 14,  1)  (  5, 13,  1)  (  5, 13,  1)
  0  0.2181E-05  0 -0.2054E-05  0  0.1792E-05  0  0.1377E-05  0 -0.7975E-06
   (  5, 14,  2)  (  5, 34,  2)  (  5, 31,  3)  (  5, 12,  1)  (  5, 12,  1)
  1 -0.7610E-06
   (  5, 40,  1)

 MAXIMUM RESIDUAL FOR EACH ITERATION (1 INDICATES THE FIRST INNER ITERATION):

    RESIDUAL       RESIDUAL       RESIDUAL       RESIDUAL       RESIDUAL    
   LAYER,ROW,COL  LAYER,ROW,COL  LAYER,ROW,COL  LAYER,ROW,COL  LAYER,ROW,COL
 ---------------------------------------------------------------------------
  1  0.3141E-03  0  0.2681E-03  0  0.2080E-03  0  0.1583E-03  0  0.1238E-03
   (  4, 35, 35)  (  4, 35, 35)  (  4, 35, 35)  (  3, 40, 27)  (  3, 40, 27)
  0 -0.9960E-04  0 -0.8440E-04  0 -0.7467E-04  0 -0.6090E-04  0 -0.4676E-04
   (  4, 43,  5)  (  4, 43,  4)  (  4, 43,  4)  (  4, 43,  4)  (  4, 43,  4)
  0 -0.3455E-04  0 -0.2707E-04  0 -0.2050E-04  0 -0.1500E-04  0 -0.1086E-04
   (  4, 43,  4)  (  4, 44,  2)  (  4, 44,  2)  (  4, 44,  2)  (  4, 44,  2)
  0 -0.7682E-05  0 -0.5963E-05  0 -0.4606E-05  0 -0.3522E-05  0 -0.3099E-05
   (  4, 34, 35)  (  4, 34, 35)  (  4, 34, 35)  (  4, 34, 35)  (  4, 34, 35)
  0 -0.2357E-05  0 -0.2019E-05  0 -0.1508E-05  0 -0.1027E-05  0 -0.7081E-06
   (  4, 34, 35)  (  4, 34, 35)  (  4, 34, 35)  (  4, 34, 35)  (  4, 34, 35)
  0  0.5808E-06  0  0.4618E-06  0  0.3420E-06  0  0.2342E-06  0  0.1571E-06
   (  4, 35, 35)  (  4, 35, 35)  (  4, 35, 35)  (  4, 35, 35)  (  4, 35, 35)
  1  0.7629E-06  0  0.5080E-06  0  0.2183E-06  0 -0.1587E-06  0 -0.1396E-06
   (  3, 34,  8)  (  3, 34,  8)  (  3, 18,  5)  (  3, 43,  7)  (  3, 43,  7)
  0 -0.1216E-06  0 -0.9917E-07  0  0.8952E-07  0  0.8039E-07  0  0.7380E-07
   (  3, 43,  7)  (  3, 43,  7)  (  4, 44,  1)  (  4, 44,  1)  (  4, 44,  1)
  0  0.6225E-07  0  0.5269E-07  0  0.4006E-07  0  0.3031E-07  0  0.2098E-07
   (  4, 44,  1)  (  4, 44,  1)  (  4, 44,  1)  (  4, 44,  1)  (  4, 44,  1)
  0 -0.1499E-07  0 -0.1223E-07  0 -0.1027E-07  0 -0.8256E-08  0 -0.6370E-08
   (  4, 43,  4)  (  4, 43,  4)  (  4, 44,  2)  (  4, 44,  2)  (  4, 44,  2)
  1 -0.5853E-08
   (  4, 44,  2)



 OUTPUT CONTROL FOR STRESS PERIOD   14   TIME STEP    3
    SAVE HEAD FOR ALL LAYERS
    SAVE DRAWDOWN FOR ALL LAYERS
    SAVE BUDGET
    PRINT BUDGET
 UBDSV1 SAVING "         STORAGE" ON UNIT   9 AT TIME STEP  3, STRESS PERIOD  14
 UBDSV2 SAVING "   CONSTANT HEAD" ON UNIT   9 AT TIME STEP  3, STRESS PERIOD  14
 UBDSV1 SAVING "FLOW RIGHT FACE " ON UNIT   9 AT TIME STEP  3, STRESS PERIOD  14
 UBDSV1 SAVING "FLOW FRONT FACE " ON UNIT   9 AT TIME STEP  3, STRESS PERIOD  14
 UBDSV1 SAVING "FLOW LOWER FACE " ON UNIT   9 AT TIME STEP  3, STRESS PERIOD  14
 UBDSV3 SAVING "        RECHARGE" ON UNIT   9 AT TIME STEP  3, STRESS PERIOD  14

 HEAD WILL BE SAVED ON UNIT   37 AT END OF TIME STEP    3, STRESS PERIOD   14

 DRAWDOWN WILL BE SAVED ON UNIT   38 AT END OF TIME STEP    3, STRESS PERIOD   14
1
  VOLUMETRIC BUDGET FOR ENTIRE MODEL AT END OF TIME STEP    3, STRESS PERIOD  14
  ------------------------------------------------------------------------------

     CUMULATIVE VOLUMES      L**3       RATES FOR THIS TIME STEP      L**3/T
     ------------------                 ------------------------

           IN:                                      IN:
           ---                                      ---
             STORAGE =        6190.9106               STORAGE =       1.3854E-03
       CONSTANT HEAD =        3630.7549         CONSTANT HEAD =       2.8207E-03
            RECHARGE =         185.3027              RECHARGE =       1.0213E-04

            TOTAL IN =       10006.9688              TOTAL IN =       4.3082E-03

          OUT:                                     OUT:
          ----                                     ----
             STORAGE =          13.6599               STORAGE =           0.0000
       CONSTANT HEAD =        9993.5283         CONSTANT HEAD =       4.3083E-03
            RECHARGE =           0.0000              RECHARGE =           0.0000

           TOTAL OUT =       10007.1885             TOTAL OUT =       4.3083E-03

            IN - OUT =          -0.2197              IN - OUT =      -1.2247E-07

 PERCENT DISCREPANCY =          -0.00     PERCENT DISCREPANCY =          -0.00






         TIME SUMMARY AT END OF TIME STEP    3 IN STRESS PERIOD   14
                    SECONDS     MINUTES      HOURS       DAYS        YEARS
                    -----------------------------------------------------------
   TIME STEP LENGTH  86400.      1440.0      24.000      1.0000     2.73785E-03
 STRESS PERIOD TIME 2.59200E+05  4320.0      72.000      3.0000     8.21355E-03
         TOTAL TIME 1.81440E+06  30240.      504.00      21.000     5.74949E-02
1
1
                            STRESS PERIOD NO.   15, LENGTH =   86400.00    
                            -----------------------------------------------

                              NUMBER OF TIME STEPS =     1

                               MULTIPLIER FOR DELT =     1.000

                            INITIAL TIME STEP SIZE =   86400.00    

 REUSING RECH FROM LAST STRESS PERIOD

 CHD NO.   LAYER   ROW   COL    START HEAD        END HEAD         IFACE           
 ----------------------------------------------------------------------------------
      1      4      3      1       109.3           109.3           0.000    
      2      5      3      1       109.3           109.3           0.000    
      3      4      3      2       109.3           109.3           0.000    
      4      5      3      2       109.3           109.3           0.000    
      5      4      3      3       109.3           109.3           0.000    
      6      5      3      3       109.3           109.3           0.000    
      7      4      3      4       109.3           109.3           0.000    
      8      5      3      4       109.3           109.3           0.000    
      9      4      3      5       109.3           109.3           0.000    
     10      5      3      5       109.3           109.3           0.000    
     11      4      3      6       109.3           109.3           0.000    
     12      5      3      6       109.3           109.3           0.000    
     13      4      3      7       109.3           109.3           0.000    
     14      5      3      7       109.3           109.3           0.000    
     15      4      3      8       109.3           109.3           0.000    
     16      5      3      8       109.3           109.3           0.000    
     17      4      2      8       109.3           109.3           0.000    
     18      5      2      8       109.3           109.3           0.000    
     19      4      2      9       109.3           109.3           0.000    
     20      5      2      9       109.3           109.3           0.000    
     21      4      2     10       109.3           109.3           0.000    
     22      5      2     10       109.3           109.3           0.000    
     23      4      2     11       109.3           109.3           0.000    
     24      5      2     11       109.3           109.3           0.000    
     25      4      2     12       109.3           109.3           0.000    
     26      5      2     12       109.3           109.3           0.000    
     27      4      2     13       109.3           109.3           0.000    
     28      5      2     13       109.3           109.3           0.000    
     29      4      2     14       109.3           109.3           0.000    
     30      5      2     14       109.3           109.3           0.000    
     31      4      2     15       109.3           109.3           0.000    
     32      5      2     15       109.3           109.3           0.000    
     33      4      2     16       109.3           109.3           0.000    
     34      5      2     16       109.3           109.3           0.000    
     35      4      2     17       109.3           109.3           0.000    
     36      5      2     17       109.3           109.3           0.000    
     37      4      2     18       109.3           109.3           0.000    
     38      5      2     18       109.3           109.3           0.000    
     39      4      2     19       109.3           109.3           0.000    
     40      5      2     19       109.3           109.3           0.000    
     41      4      2     20       109.3           109.3           0.000    
     42      5      2     20       109.3           109.3           0.000    
     43      4      2     21       109.3           109.3           0.000    
     44      5      2     21       109.3           109.3           0.000    
     45      4      2     22       109.3           109.3           0.000    
     46      5      2     22       109.3           109.3           0.000    
     47      4      2     23       109.3           109.3           0.000    
     48      5      2     23       109.3           109.3           0.000    
     49      4      2     24       109.3           109.3           0.000    
     50      5      2     24       109.3           109.3           0.000    
     51      4      2     25       109.3           109.3           0.000    
     52      5      2     25       109.3           109.3           0.000    
     53      4      2     26       109.3           109.3           0.000    
     54      5      2     26       109.3           109.3           0.000    
     55      4      1     26       109.3           109.3           0.000    
     56      5      1     26       109.3           109.3           0.000    
     57      4      1     27       109.3           109.3           0.000    
     58      5      1     27       109.3           109.3           0.000    
     59      4      1     28       109.3           109.3           0.000    
     60      5      1     28       109.3           109.3           0.000    
     61      4      1     29       109.3           109.3           0.000    
     62      5      1     29       109.3           109.3           0.000    
     63      4      1     30       109.3           109.3           0.000    
     64      5      1     30       109.3           109.3           0.000    
     65      4      1     31       109.3           109.3           0.000    
     66      5      1     31       109.3           109.3           0.000    
     67      4      1     32       109.3           109.3           0.000    
     68      5      1     32       109.3           109.3           0.000    
     69      4      1     33       109.3           109.3           0.000    
     70      5      1     33       109.3           109.3           0.000    
     71      4      1     34       109.3           109.3           0.000    
     72      5      1     34       109.3           109.3           0.000    
     73      4      1     35       109.3           109.3           0.000    
     74      5      1     35       109.3           109.3           0.000    
     75      4     36     35       109.0           109.1           0.000    
     76      5     36     35       109.0           109.1           0.000    
     77      4     35     34       109.0           109.1           0.000    
     78      5     35     34       109.0           109.1           0.000    
     79      4     36     34       109.0           109.1           0.000    
     80      5     36     34       109.0           109.1           0.000    
     81      4     36     33       109.0           109.1           0.000    
     82      5     36     33       109.0           109.1           0.000    
     83      4     36     32       109.0           109.1           0.000    
     84      5     36     32       109.0           109.1           0.000    
     85      4     37     32       109.0           109.1           0.000    
     86      5     37     32       109.0           109.1           0.000    
     87      4     37     31       109.0           109.1           0.000    
     88      5     37     31       109.0           109.1           0.000    
     89      4     38     31       109.0           109.1           0.000    
     90      5     38     31       109.0           109.1           0.000    
     91      4     38     30       109.0           109.1           0.000    
     92      5     38     30       109.0           109.1           0.000    
     93      4     39     30       109.0           109.1           0.000    
     94      5     39     30       109.0           109.1           0.000    
     95      4     39     29       109.0           109.1           0.000    
     96      5     39     29       109.0           109.1           0.000    
     97      4     40     29       109.0           109.1           0.000    
     98      5     40     29       109.0           109.1           0.000    
     99      4     40     28       109.0           109.1           0.000    
    100      5     40     28       109.0           109.1           0.000    
    101      4     40     27       109.0           109.1           0.000    
    102      5     40     27       109.0           109.1           0.000    
    103      4     41     27       109.0           109.1           0.000    
    104      5     41     27       109.0           109.1           0.000    
    105      4     41     26       109.0           109.1           0.000    
    106      5     41     26       109.0           109.1           0.000    
    107      4     41     25       109.0           109.1           0.000    
    108      5     41     25       109.0           109.1           0.000    
    109      4     41     24       109.0           109.1           0.000    
    110      5     41     24       109.0           109.1           0.000    
    111      4     41     23       109.0           109.1           0.000    
    112      5     41     23       109.0           109.1           0.000    
    113      4     41     22       109.0           109.1           0.000    
    114      5     41     22       109.0           109.1           0.000    
    115      4     42     22       109.0           109.1           0.000    
    116      5     42     22       109.0           109.1           0.000    
    117      4     42     21       109.0           109.1           0.000    
    118      5     42     21       109.0           109.1           0.000    
    119      4     42     20       109.0           109.1           0.000    
    120      5     42     20       109.0           109.1           0.000    
    121      4     42     19       109.0           109.1           0.000    
    122      5     42     19       109.0           109.1           0.000    
    123      4     43     18       109.0           109.1           0.000    
    124      5     43     18       109.0           109.1           0.000    
    125      4     42     18       109.0           109.1           0.000    
    126      5     42     18       109.0           109.1           0.000    
    127      4     42     17       109.0           109.1           0.000    
    128      5     42     17       109.0           109.1           0.000    
    129      4     42     16       109.0           109.1           0.000    
    130      5     42     16       109.0           109.1           0.000    
    131      4     42     15       109.0           109.1           0.000    
    132      5     42     15       109.0           109.1           0.000    
    133      4     43     15       109.0           109.1           0.000    
    134      5     43     15       109.0           109.1           0.000    
    135      4     43     14       109.0           109.1           0.000    
    136      5     43     14       109.0           109.1           0.000    
    137      4     43     13       109.0           109.1           0.000    
    138      5     43     13       109.0           109.1           0.000    
    139      4     43     12       109.0           109.1           0.000    
    140      5     43     12       109.0           109.1           0.000    
    141      4     43     11       109.0           109.1           0.000    
    142      5     43     11       109.0           109.1           0.000    
    143      4     43     10       109.0           109.1           0.000    
    144      5     43     10       109.0           109.1           0.000    
    145      4     44     10       109.0           109.1           0.000    
    146      5     44     10       109.0           109.1           0.000    
    147      4     44      9       109.0           109.1           0.000    
    148      5     44      9       109.0           109.1           0.000    
    149      4     44      8       109.0           109.1           0.000    
    150      5     44      8       109.0           109.1           0.000    
    151      4     44      7       109.0           109.1           0.000    
    152      5     44      7       109.0           109.1           0.000    
    153      4     44      6       109.0           109.1           0.000    
    154      5     44      6       109.0           109.1           0.000    
    155      4     44      5       109.0           109.1           0.000    
    156      5     44      5       109.0           109.1           0.000    
    157      4     44      4       109.0           109.1           0.000    
    158      5     44      4       109.0           109.1           0.000    
    159      4     44      3       109.0           109.1           0.000    
    160      5     44      3       109.0           109.1           0.000    
    161      4     45      3       109.0           109.1           0.000    
    162      5     45      3       109.0           109.1           0.000    
    163      4     45      2       109.0           109.1           0.000    
    164      5     45      2       109.0           109.1           0.000    
    165      4     45      1       109.0           109.1           0.000    
    166      5     45      1       109.0           109.1           0.000    


    166 TIME-VARIANT SPECIFIED-HEAD CELLS

 SOLVING FOR HEAD 


     3 CALLS TO PCG ROUTINE FOR TIME STEP   1 IN STRESS PERIOD   15
    56 TOTAL ITERATIONS

 MAXIMUM HEAD CHANGE FOR EACH ITERATION (1 INDICATES THE FIRST INNER ITERATION):

    HEAD CHANGE    HEAD CHANGE    HEAD CHANGE    HEAD CHANGE    HEAD CHANGE 
   LAYER,ROW,COL  LAYER,ROW,COL  LAYER,ROW,COL  LAYER,ROW,COL  LAYER,ROW,COL
 ---------------------------------------------------------------------------
  1  0.3683      0 -0.1675      0 -0.1412      0  0.1750      0 -0.1242    
   (  5, 43,  5)  (  5, 40,  1)  (  5, 42,  1)  (  5, 38,  1)  (  5, 35,  1)
  0  0.7493E-01  0  0.5090E-01  0 -0.2935E-01  0  0.3214E-01  0 -0.2254E-01
   (  5, 33,  2)  (  5, 41,  5)  (  5, 40,  1)  (  5, 37,  1)  (  5, 40,  5)
  0  0.1861E-01  0 -0.1105E-01  0 -0.8348E-02  0  0.7131E-02  0 -0.5742E-02
   (  5, 39,  1)  (  5, 42,  1)  (  5, 42,  6)  (  5, 37,  8)  (  5, 35,  8)
  0 -0.3787E-02  0  0.3007E-02  0 -0.2522E-02  0  0.1493E-02  0  0.1561E-02
   (  5, 38,  4)  (  5, 36,  3)  (  5, 31,  2)  (  5, 39,  1)  (  5, 15,  1)
  0 -0.1096E-02  0  0.9352E-03  0  0.6686E-03  0 -0.5098E-03  0  0.4082E-03
   (  5, 37,  1)  (  5, 35,  1)  (  5, 13,  1)  (  5, 13,  1)  (  5, 12,  1)
  0 -0.2147E-03  0  0.2196E-03  0 -0.1525E-03  0 -0.9225E-04  0  0.5101E-04
   (  5, 40,  2)  (  5, 38,  1)  (  5, 36,  1)  (  5, 13,  2)  (  5, 31,  7)
  1  0.6004E-03  0 -0.4344E-03  0  0.5095E-03  0 -0.2706E-03  0  0.1861E-03
   (  5, 39,  8)  (  5, 34,  2)  (  5, 35,  1)  (  5, 27,  1)  (  5, 34,  6)
  0  0.1738E-03  0 -0.1304E-03  0  0.9338E-04  0 -0.7257E-04  0  0.5725E-04
   (  5, 38,  1)  (  5, 32,  5)  (  5, 31,  1)  (  5, 36,  7)  (  5, 35,  4)
  0  0.4529E-04  0 -0.3019E-04  0 -0.2851E-04  0 -0.1900E-04  0  0.1463E-04
   (  5, 29, 10)  (  5, 40,  1)  (  5, 29,  9)  (  5, 14,  1)  (  5, 14,  1)
  0 -0.1184E-04  0 -0.8015E-05  0  0.7093E-05  0 -0.5760E-05  0  0.3083E-05
   (  5, 15,  1)  (  5, 31,  4)  (  5, 30,  1)  (  5, 34,  1)  (  5, 29,  4)
  0  0.2912E-05  0 -0.2153E-05  0  0.1847E-05  0  0.1194E-05  0 -0.7218E-06
   (  5, 41,  1)  (  5, 37,  1)  (  5, 34,  1)  (  5, 31,  7)  (  5, 31,  4)
  1  0.6700E-06
   (  5, 30,  2)

 MAXIMUM RESIDUAL FOR EACH ITERATION (1 INDICATES THE FIRST INNER ITERATION):

    RESIDUAL       RESIDUAL       RESIDUAL       RESIDUAL       RESIDUAL    
   LAYER,ROW,COL  LAYER,ROW,COL  LAYER,ROW,COL  LAYER,ROW,COL  LAYER,ROW,COL
 ---------------------------------------------------------------------------
  1 -0.1393E-02  0 -0.1071E-02  0 -0.8716E-03  0 -0.7139E-03  0 -0.6032E-03
   (  4, 44,  2)  (  4, 35, 35)  (  4, 35, 35)  (  3, 40, 27)  (  3, 40, 27)
  0 -0.4862E-03  0 -0.3711E-03  0 -0.2931E-03  0 -0.2248E-03  0  0.1723E-03
   (  3, 40, 27)  (  3, 40, 27)  (  3, 40, 27)  (  4, 35, 35)  (  3, 35, 35)
  0  0.1306E-03  0  0.9471E-04  0  0.6864E-04  0  0.5418E-04  0  0.4315E-04
   (  3, 35, 35)  (  3, 35, 35)  (  4, 34, 35)  (  4, 34, 35)  (  4, 34, 35)
  0  0.3324E-04  0  0.2783E-04  0  0.2404E-04  0  0.1858E-04  0  0.1465E-04
   (  4, 34, 35)  (  4, 34, 35)  (  4, 34, 35)  (  4, 34, 35)  (  4, 34, 35)
  0  0.1212E-04  0  0.9677E-05  0  0.7271E-05  0  0.5076E-05  0  0.3663E-05
   (  4, 34, 35)  (  4, 34, 35)  (  4, 34, 35)  (  4, 34, 35)  (  4, 34, 35)
  0  0.2580E-05  0  0.2049E-05  0 -0.1570E-05  0 -0.1124E-05  0 -0.7957E-06
   (  4, 34, 35)  (  4, 34, 35)  (  4, 35, 35)  (  4, 35, 35)  (  4, 35, 35)
  1 -0.2008E-05  0 -0.1127E-05  0 -0.9280E-06  0 -0.8932E-06  0 -0.7552E-06
   (  3, 39,  7)  (  3, 39,  7)  (  4, 43,  5)  (  4, 43,  5)  (  4, 43,  5)
  0  0.6678E-06  0  0.5570E-06  0  0.4594E-06  0 -0.3199E-06  0 -0.2792E-06
   (  3, 43,  6)  (  3, 43,  6)  (  3, 43,  6)  (  4, 44,  1)  (  4, 44,  1)
  0 -0.2290E-06  0 -0.1743E-06  0 -0.1310E-06  0 -0.9764E-07  0 -0.6762E-07
   (  4, 44,  1)  (  4, 44,  1)  (  4, 44,  1)  (  3, 43,  7)  (  3, 43,  7)
  0 -0.5444E-07  0 -0.4111E-07  0 -0.3634E-07  0 -0.3116E-07  0 -0.2103E-07
   (  4, 41,  2)  (  4, 41,  2)  (  4, 42,  2)  (  4, 42,  2)  (  4, 42,  2)
  0 -0.1369E-07  0 -0.1104E-07  0 -0.1045E-07  0 -0.8398E-08  0 -0.6494E-08
   (  4, 42,  2)  (  4, 43,  6)  (  4, 43,  6)  (  4, 43,  6)  (  4, 43,  6)
  1 -0.5940E-08
   (  4, 43,  6)



 OUTPUT CONTROL FOR STRESS PERIOD   15   TIME STEP    1
    SAVE HEAD FOR ALL LAYERS
    SAVE DRAWDOWN FOR ALL LAYERS
    SAVE BUDGET
    PRINT BUDGET
 UBDSV1 SAVING "         STORAGE" ON UNIT   9 AT TIME STEP  1, STRESS PERIOD  15
 UBDSV2 SAVING "   CONSTANT HEAD" ON UNIT   9 AT TIME STEP  1, STRESS PERIOD  15
 UBDSV1 SAVING "FLOW RIGHT FACE " ON UNIT   9 AT TIME STEP  1, STRESS PERIOD  15
 UBDSV1 SAVING "FLOW FRONT FACE " ON UNIT   9 AT TIME STEP  1, STRESS PERIOD  15
 UBDSV1 SAVING "FLOW LOWER FACE " ON UNIT   9 AT TIME STEP  1, STRESS PERIOD  15
 UBDSV3 SAVING "        RECHARGE" ON UNIT   9 AT TIME STEP  1, STRESS PERIOD  15

 HEAD WILL BE SAVED ON UNIT   37 AT END OF TIME STEP    1, STRESS PERIOD   15

 DRAWDOWN WILL BE SAVED ON UNIT   38 AT END OF TIME STEP    1, STRESS PERIOD   15
1
  VOLUMETRIC BUDGET FOR ENTIRE MODEL AT END OF TIME STEP    1, STRESS PERIOD  15
  ------------------------------------------------------------------------------

     CUMULATIVE VOLUMES      L**3       RATES FOR THIS TIME STEP      L**3/T
     ------------------                 ------------------------

           IN:                                      IN:
           ---                                      ---
             STORAGE =        6190.9106               STORAGE =           0.0000
       CONSTANT HEAD =        3881.3337         CONSTANT HEAD =       2.9002E-03
            RECHARGE =         194.1266              RECHARGE =       1.0213E-04

            TOTAL IN =       10266.3711              TOTAL IN =       3.0023E-03

          OUT:                                     OUT:
          ----                                     ----
             STORAGE =         214.2821               STORAGE =       2.3220E-03
       CONSTANT HEAD =       10052.3174         CONSTANT HEAD =       6.8043E-04
            RECHARGE =           0.0000              RECHARGE =           0.0000

           TOTAL OUT =       10266.5996             TOTAL OUT =       3.0024E-03

            IN - OUT =          -0.2285              IN - OUT =      -9.8720E-08

 PERCENT DISCREPANCY =          -0.00     PERCENT DISCREPANCY =          -0.00






         TIME SUMMARY AT END OF TIME STEP    1 IN STRESS PERIOD   15
                    SECONDS     MINUTES      HOURS       DAYS        YEARS
                    -----------------------------------------------------------
   TIME STEP LENGTH  86400.      1440.0      24.000      1.0000     2.73785E-03
 STRESS PERIOD TIME  86400.      1440.0      24.000      1.0000     2.73785E-03
         TOTAL TIME 1.90080E+06  31680.      528.00      22.000     6.02327E-02
1
1
                            STRESS PERIOD NO.   16, LENGTH =   86400.00    
                            -----------------------------------------------

                              NUMBER OF TIME STEPS =     1

                               MULTIPLIER FOR DELT =     1.000

                            INITIAL TIME STEP SIZE =   86400.00    

 REUSING RECH FROM LAST STRESS PERIOD

 CHD NO.   LAYER   ROW   COL    START HEAD        END HEAD         IFACE           
 ----------------------------------------------------------------------------------
      1      4      3      1       109.3           109.3           0.000    
      2      5      3      1       109.3           109.3           0.000    
      3      4      3      2       109.3           109.3           0.000    
      4      5      3      2       109.3           109.3           0.000    
      5      4      3      3       109.3           109.3           0.000    
      6      5      3      3       109.3           109.3           0.000    
      7      4      3      4       109.3           109.3           0.000    
      8      5      3      4       109.3           109.3           0.000    
      9      4      3      5       109.3           109.3           0.000    
     10      5      3      5       109.3           109.3           0.000    
     11      4      3      6       109.3           109.3           0.000    
     12      5      3      6       109.3           109.3           0.000    
     13      4      3      7       109.3           109.3           0.000    
     14      5      3      7       109.3           109.3           0.000    
     15      4      3      8       109.3           109.3           0.000    
     16      5      3      8       109.3           109.3           0.000    
     17      4      2      8       109.3           109.3           0.000    
     18      5      2      8       109.3           109.3           0.000    
     19      4      2      9       109.3           109.3           0.000    
     20      5      2      9       109.3           109.3           0.000    
     21      4      2     10       109.3           109.3           0.000    
     22      5      2     10       109.3           109.3           0.000    
     23      4      2     11       109.3           109.3           0.000    
     24      5      2     11       109.3           109.3           0.000    
     25      4      2     12       109.3           109.3           0.000    
     26      5      2     12       109.3           109.3           0.000    
     27      4      2     13       109.3           109.3           0.000    
     28      5      2     13       109.3           109.3           0.000    
     29      4      2     14       109.3           109.3           0.000    
     30      5      2     14       109.3           109.3           0.000    
     31      4      2     15       109.3           109.3           0.000    
     32      5      2     15       109.3           109.3           0.000    
     33      4      2     16       109.3           109.3           0.000    
     34      5      2     16       109.3           109.3           0.000    
     35      4      2     17       109.3           109.3           0.000    
     36      5      2     17       109.3           109.3           0.000    
     37      4      2     18       109.3           109.3           0.000    
     38      5      2     18       109.3           109.3           0.000    
     39      4      2     19       109.3           109.3           0.000    
     40      5      2     19       109.3           109.3           0.000    
     41      4      2     20       109.3           109.3           0.000    
     42      5      2     20       109.3           109.3           0.000    
     43      4      2     21       109.3           109.3           0.000    
     44      5      2     21       109.3           109.3           0.000    
     45      4      2     22       109.3           109.3           0.000    
     46      5      2     22       109.3           109.3           0.000    
     47      4      2     23       109.3           109.3           0.000    
     48      5      2     23       109.3           109.3           0.000    
     49      4      2     24       109.3           109.3           0.000    
     50      5      2     24       109.3           109.3           0.000    
     51      4      2     25       109.3           109.3           0.000    
     52      5      2     25       109.3           109.3           0.000    
     53      4      2     26       109.3           109.3           0.000    
     54      5      2     26       109.3           109.3           0.000    
     55      4      1     26       109.3           109.3           0.000    
     56      5      1     26       109.3           109.3           0.000    
     57      4      1     27       109.3           109.3           0.000    
     58      5      1     27       109.3           109.3           0.000    
     59      4      1     28       109.3           109.3           0.000    
     60      5      1     28       109.3           109.3           0.000    
     61      4      1     29       109.3           109.3           0.000    
     62      5      1     29       109.3           109.3           0.000    
     63      4      1     30       109.3           109.3           0.000    
     64      5      1     30       109.3           109.3           0.000    
     65      4      1     31       109.3           109.3           0.000    
     66      5      1     31       109.3           109.3           0.000    
     67      4      1     32       109.3           109.3           0.000    
     68      5      1     32       109.3           109.3           0.000    
     69      4      1     33       109.3           109.3           0.000    
     70      5      1     33       109.3           109.3           0.000    
     71      4      1     34       109.3           109.3           0.000    
     72      5      1     34       109.3           109.3           0.000    
     73      4      1     35       109.3           109.3           0.000    
     74      5      1     35       109.3           109.3           0.000    
     75      4     36     35       109.1           109.1           0.000    
     76      5     36     35       109.1           109.1           0.000    
     77      4     35     34       109.1           109.1           0.000    
     78      5     35     34       109.1           109.1           0.000    
     79      4     36     34       109.1           109.1           0.000    
     80      5     36     34       109.1           109.1           0.000    
     81      4     36     33       109.1           109.1           0.000    
     82      5     36     33       109.1           109.1           0.000    
     83      4     36     32       109.1           109.1           0.000    
     84      5     36     32       109.1           109.1           0.000    
     85      4     37     32       109.1           109.1           0.000    
     86      5     37     32       109.1           109.1           0.000    
     87      4     37     31       109.1           109.1           0.000    
     88      5     37     31       109.1           109.1           0.000    
     89      4     38     31       109.1           109.1           0.000    
     90      5     38     31       109.1           109.1           0.000    
     91      4     38     30       109.1           109.1           0.000    
     92      5     38     30       109.1           109.1           0.000    
     93      4     39     30       109.1           109.1           0.000    
     94      5     39     30       109.1           109.1           0.000    
     95      4     39     29       109.1           109.1           0.000    
     96      5     39     29       109.1           109.1           0.000    
     97      4     40     29       109.1           109.1           0.000    
     98      5     40     29       109.1           109.1           0.000    
     99      4     40     28       109.1           109.1           0.000    
    100      5     40     28       109.1           109.1           0.000    
    101      4     40     27       109.1           109.1           0.000    
    102      5     40     27       109.1           109.1           0.000    
    103      4     41     27       109.1           109.1           0.000    
    104      5     41     27       109.1           109.1           0.000    
    105      4     41     26       109.1           109.1           0.000    
    106      5     41     26       109.1           109.1           0.000    
    107      4     41     25       109.1           109.1           0.000    
    108      5     41     25       109.1           109.1           0.000    
    109      4     41     24       109.1           109.1           0.000    
    110      5     41     24       109.1           109.1           0.000    
    111      4     41     23       109.1           109.1           0.000    
    112      5     41     23       109.1           109.1           0.000    
    113      4     41     22       109.1           109.1           0.000    
    114      5     41     22       109.1           109.1           0.000    
    115      4     42     22       109.1           109.1           0.000    
    116      5     42     22       109.1           109.1           0.000    
    117      4     42     21       109.1           109.1           0.000    
    118      5     42     21       109.1           109.1           0.000    
    119      4     42     20       109.1           109.1           0.000    
    120      5     42     20       109.1           109.1           0.000    
    121      4     42     19       109.1           109.1           0.000    
    122      5     42     19       109.1           109.1           0.000    
    123      4     43     18       109.1           109.1           0.000    
    124      5     43     18       109.1           109.1           0.000    
    125      4     42     18       109.1           109.1           0.000    
    126      5     42     18       109.1           109.1           0.000    
    127      4     42     17       109.1           109.1           0.000    
    128      5     42     17       109.1           109.1           0.000    
    129      4     42     16       109.1           109.1           0.000    
    130      5     42     16       109.1           109.1           0.000    
    131      4     42     15       109.1           109.1           0.000    
    132      5     42     15       109.1           109.1           0.000    
    133      4     43     15       109.1           109.1           0.000    
    134      5     43     15       109.1           109.1           0.000    
    135      4     43     14       109.1           109.1           0.000    
    136      5     43     14       109.1           109.1           0.000    
    137      4     43     13       109.1           109.1           0.000    
    138      5     43     13       109.1           109.1           0.000    
    139      4     43     12       109.1           109.1           0.000    
    140      5     43     12       109.1           109.1           0.000    
    141      4     43     11       109.1           109.1           0.000    
    142      5     43     11       109.1           109.1           0.000    
    143      4     43     10       109.1           109.1           0.000    
    144      5     43     10       109.1           109.1           0.000    
    145      4     44     10       109.1           109.1           0.000    
    146      5     44     10       109.1           109.1           0.000    
    147      4     44      9       109.1           109.1           0.000    
    148      5     44      9       109.1           109.1           0.000    
    149      4     44      8       109.1           109.1           0.000    
    150      5     44      8       109.1           109.1           0.000    
    151      4     44      7       109.1           109.1           0.000    
    152      5     44      7       109.1           109.1           0.000    
    153      4     44      6       109.1           109.1           0.000    
    154      5     44      6       109.1           109.1           0.000    
    155      4     44      5       109.1           109.1           0.000    
    156      5     44      5       109.1           109.1           0.000    
    157      4     44      4       109.1           109.1           0.000    
    158      5     44      4       109.1           109.1           0.000    
    159      4     44      3       109.1           109.1           0.000    
    160      5     44      3       109.1           109.1           0.000    
    161      4     45      3       109.1           109.1           0.000    
    162      5     45      3       109.1           109.1           0.000    
    163      4     45      2       109.1           109.1           0.000    
    164      5     45      2       109.1           109.1           0.000    
    165      4     45      1       109.1           109.0           0.000    
    166      5     45      1       109.1           109.0           0.000    


    166 TIME-VARIANT SPECIFIED-HEAD CELLS

 SOLVING FOR HEAD 


     3 CALLS TO PCG ROUTINE FOR TIME STEP   1 IN STRESS PERIOD   16
    50 TOTAL ITERATIONS

 MAXIMUM HEAD CHANGE FOR EACH ITERATION (1 INDICATES THE FIRST INNER ITERATION):

    HEAD CHANGE    HEAD CHANGE    HEAD CHANGE    HEAD CHANGE    HEAD CHANGE 
   LAYER,ROW,COL  LAYER,ROW,COL  LAYER,ROW,COL  LAYER,ROW,COL  LAYER,ROW,COL
 ---------------------------------------------------------------------------
  1 -0.1335      0 -0.5871E-01  0  0.6455E-01  0 -0.7722E-01  0  0.4721E-01
   (  5, 43,  5)  (  5, 30,  1)  (  5, 41,  1)  (  5, 38,  1)  (  5, 35,  1)
  0 -0.2829E-01  0  0.1794E-01  0 -0.1203E-01  0 -0.9948E-02  0  0.7968E-02
   (  5, 33,  2)  (  5, 31,  2)  (  5, 32,  6)  (  5, 19,  1)  (  5, 40,  5)
  0 -0.7173E-02  0  0.4278E-02  0  0.3351E-02  0 -0.3495E-02  0  0.2442E-02
   (  5, 39,  1)  (  5, 42,  1)  (  5, 36,  5)  (  5, 41,  1)  (  5, 27,  9)
  0  0.1685E-02  0 -0.1530E-02  0  0.8229E-03  0  0.5741E-03  0 -0.5611E-03
   (  5, 34,  1)  (  5, 31,  1)  (  5, 40,  1)  (  5, 16,  1)  (  5, 15,  1)
  0  0.4632E-03  0 -0.3497E-03  0 -0.2286E-03  0  0.2176E-03  0 -0.1521E-03
   (  5, 37,  1)  (  5, 35,  1)  (  5, 14,  1)  (  5, 13,  1)  (  5, 12,  1)
  0 -0.8665E-04  0  0.6918E-04  0 -0.6936E-04  0  0.4329E-04  0 -0.3297E-04
   (  5, 37,  1)  (  5, 36,  1)  (  5, 38,  1)  (  5, 36,  1)  (  5, 30,  1)
  1  0.5270E-04  0  0.6307E-04  0  0.5540E-04  0 -0.3268E-04  0 -0.3046E-04
   (  5, 31,  1)  (  5, 41,  8)  (  3, 39,  6)  (  5, 22,  1)  (  5, 33,  1)
  0  0.2729E-04  0 -0.2839E-04  0 -0.1772E-04  0 -0.1618E-04  0  0.1287E-04
   (  5, 38,  4)  (  5, 37,  1)  (  5, 34,  5)  (  5, 38,  1)  (  5, 13,  1)
  0 -0.8650E-05  0  0.5860E-05  0 -0.3754E-05  0  0.3920E-05  0 -0.2251E-05
   (  5, 14,  1)  (  5, 14,  1)  (  5, 39,  1)  (  5, 41,  1)  (  5, 35,  8)
  0  0.1988E-05  0 -0.2049E-05  0  0.1042E-05  0  0.8425E-06  1 -0.5993E-06
   (  5, 32,  3)  (  5, 32,  1)  (  5, 36,  2)  (  5, 27, 11)  (  5, 27, 10)

 MAXIMUM RESIDUAL FOR EACH ITERATION (1 INDICATES THE FIRST INNER ITERATION):

    RESIDUAL       RESIDUAL       RESIDUAL       RESIDUAL       RESIDUAL    
   LAYER,ROW,COL  LAYER,ROW,COL  LAYER,ROW,COL  LAYER,ROW,COL  LAYER,ROW,COL
 ---------------------------------------------------------------------------
  1  0.5934E-03  0  0.4415E-03  0  0.3435E-03  0  0.2839E-03  0  0.2393E-03
   (  4, 44,  2)  (  4, 44,  2)  (  4, 35, 35)  (  3, 40, 27)  (  3, 40, 27)
  0  0.1970E-03  0  0.1532E-03  0  0.1241E-03  0  0.9716E-04  0  0.7494E-04
   (  3, 40, 27)  (  3, 40, 27)  (  4, 35, 35)  (  4, 35, 35)  (  4, 35, 35)
  0 -0.5176E-04  0 -0.3807E-04  0 -0.2767E-04  0 -0.2191E-04  0 -0.1753E-04
   (  3, 35, 35)  (  3, 35, 35)  (  4, 34, 35)  (  4, 34, 35)  (  4, 34, 35)
  0 -0.1456E-04  0 -0.1277E-04  0 -0.9984E-05  0 -0.7637E-05  0 -0.6069E-05
   (  4, 34, 35)  (  4, 34, 35)  (  4, 34, 35)  (  4, 34, 35)  (  4, 34, 35)
  0 -0.4965E-05  0 -0.4051E-05  0 -0.3022E-05  0 -0.2170E-05  0 -0.1589E-05
   (  4, 34, 35)  (  4, 34, 35)  (  4, 34, 35)  (  4, 34, 35)  (  4, 34, 35)
  0 -0.1112E-05  0 -0.8631E-06  0 -0.6544E-06  0  0.4736E-06  0  0.4164E-06
   (  4, 34, 35)  (  4, 34, 35)  (  4, 34, 35)  (  4, 35, 35)  (  4, 35, 35)
  1 -0.9248E-06  0 -0.6783E-06  0 -0.3647E-06  0 -0.2353E-06  0 -0.1404E-06
   (  3, 39,  6)  (  3, 39,  6)  (  3, 39,  6)  (  3, 39,  6)  (  3, 44,  5)
  0  0.1098E-06  0  0.8389E-07  0 -0.6780E-07  0  0.6743E-07  0  0.5700E-07
   (  4, 35, 35)  (  4, 35, 35)  (  4, 39,  5)  (  4, 43,  2)  (  4, 43,  2)
  0  0.4835E-07  0  0.3601E-07  0  0.2764E-07  0  0.1993E-07  0  0.1617E-07
   (  4, 43,  2)  (  4, 43,  2)  (  4, 43,  2)  (  3, 44,  5)  (  3, 44,  5)
  0  0.1409E-07  0  0.1088E-07  0  0.6808E-08  0 -0.3710E-08  1 -0.3221E-08
   (  3, 44,  5)  (  3, 44,  5)  (  3, 44,  5)  (  4, 42,  2)  (  4, 42,  2)



 OUTPUT CONTROL FOR STRESS PERIOD   16   TIME STEP    1
    SAVE HEAD FOR ALL LAYERS
    SAVE DRAWDOWN FOR ALL LAYERS
    SAVE BUDGET
    PRINT BUDGET
 UBDSV1 SAVING "         STORAGE" ON UNIT   9 AT TIME STEP  1, STRESS PERIOD  16
 UBDSV2 SAVING "   CONSTANT HEAD" ON UNIT   9 AT TIME STEP  1, STRESS PERIOD  16
 UBDSV1 SAVING "FLOW RIGHT FACE " ON UNIT   9 AT TIME STEP  1, STRESS PERIOD  16
 UBDSV1 SAVING "FLOW FRONT FACE " ON UNIT   9 AT TIME STEP  1, STRESS PERIOD  16
 UBDSV1 SAVING "FLOW LOWER FACE " ON UNIT   9 AT TIME STEP  1, STRESS PERIOD  16
 UBDSV3 SAVING "        RECHARGE" ON UNIT   9 AT TIME STEP  1, STRESS PERIOD  16

 HEAD WILL BE SAVED ON UNIT   37 AT END OF TIME STEP    1, STRESS PERIOD   16

 DRAWDOWN WILL BE SAVED ON UNIT   38 AT END OF TIME STEP    1, STRESS PERIOD   16
1
  VOLUMETRIC BUDGET FOR ENTIRE MODEL AT END OF TIME STEP    1, STRESS PERIOD  16
  ------------------------------------------------------------------------------

     CUMULATIVE VOLUMES      L**3       RATES FOR THIS TIME STEP      L**3/T
     ------------------                 ------------------------

           IN:                                      IN:
           ---                                      ---
             STORAGE =        6229.6016               STORAGE =       4.4781E-04
       CONSTANT HEAD =        4110.4556         CONSTANT HEAD =       2.6519E-03
            RECHARGE =         202.9506              RECHARGE =       1.0213E-04

            TOTAL IN =       10543.0068              TOTAL IN =       3.2018E-03

          OUT:                                     OUT:
          ----                                     ----
             STORAGE =         214.4816               STORAGE =       2.3083E-06
       CONSTANT HEAD =       10328.7646         CONSTANT HEAD =       3.1996E-03
            RECHARGE =           0.0000              RECHARGE =           0.0000

           TOTAL OUT =       10543.2461             TOTAL OUT =       3.2019E-03

            IN - OUT =          -0.2393              IN - OUT =      -1.1618E-07

 PERCENT DISCREPANCY =          -0.00     PERCENT DISCREPANCY =          -0.00






         TIME SUMMARY AT END OF TIME STEP    1 IN STRESS PERIOD   16
                    SECONDS     MINUTES      HOURS       DAYS        YEARS
                    -----------------------------------------------------------
   TIME STEP LENGTH  86400.      1440.0      24.000      1.0000     2.73785E-03
 STRESS PERIOD TIME  86400.      1440.0      24.000      1.0000     2.73785E-03
         TOTAL TIME 1.98720E+06  33120.      552.00      23.000     6.29706E-02
1
1
                            STRESS PERIOD NO.   17, LENGTH =   86400.00    
                            -----------------------------------------------

                              NUMBER OF TIME STEPS =     1

                               MULTIPLIER FOR DELT =     1.000

                            INITIAL TIME STEP SIZE =   86400.00    

 REUSING RECH FROM LAST STRESS PERIOD

 CHD NO.   LAYER   ROW   COL    START HEAD        END HEAD         IFACE           
 ----------------------------------------------------------------------------------
      1      4      3      1       109.3           109.4           0.000    
      2      5      3      1       109.3           109.4           0.000    
      3      4      3      2       109.3           109.4           0.000    
      4      5      3      2       109.3           109.4           0.000    
      5      4      3      3       109.3           109.4           0.000    
      6      5      3      3       109.3           109.4           0.000    
      7      4      3      4       109.3           109.4           0.000    
      8      5      3      4       109.3           109.4           0.000    
      9      4      3      5       109.3           109.4           0.000    
     10      5      3      5       109.3           109.4           0.000    
     11      4      3      6       109.3           109.4           0.000    
     12      5      3      6       109.3           109.4           0.000    
     13      4      3      7       109.3           109.4           0.000    
     14      5      3      7       109.3           109.4           0.000    
     15      4      3      8       109.3           109.4           0.000    
     16      5      3      8       109.3           109.4           0.000    
     17      4      2      8       109.3           109.4           0.000    
     18      5      2      8       109.3           109.4           0.000    
     19      4      2      9       109.3           109.4           0.000    
     20      5      2      9       109.3           109.4           0.000    
     21      4      2     10       109.3           109.4           0.000    
     22      5      2     10       109.3           109.4           0.000    
     23      4      2     11       109.3           109.4           0.000    
     24      5      2     11       109.3           109.4           0.000    
     25      4      2     12       109.3           109.4           0.000    
     26      5      2     12       109.3           109.4           0.000    
     27      4      2     13       109.3           109.4           0.000    
     28      5      2     13       109.3           109.4           0.000    
     29      4      2     14       109.3           109.4           0.000    
     30      5      2     14       109.3           109.4           0.000    
     31      4      2     15       109.3           109.4           0.000    
     32      5      2     15       109.3           109.4           0.000    
     33      4      2     16       109.3           109.4           0.000    
     34      5      2     16       109.3           109.4           0.000    
     35      4      2     17       109.3           109.4           0.000    
     36      5      2     17       109.3           109.4           0.000    
     37      4      2     18       109.3           109.4           0.000    
     38      5      2     18       109.3           109.4           0.000    
     39      4      2     19       109.3           109.4           0.000    
     40      5      2     19       109.3           109.4           0.000    
     41      4      2     20       109.3           109.4           0.000    
     42      5      2     20       109.3           109.4           0.000    
     43      4      2     21       109.3           109.4           0.000    
     44      5      2     21       109.3           109.4           0.000    
     45      4      2     22       109.3           109.4           0.000    
     46      5      2     22       109.3           109.4           0.000    
     47      4      2     23       109.3           109.4           0.000    
     48      5      2     23       109.3           109.4           0.000    
     49      4      2     24       109.3           109.4           0.000    
     50      5      2     24       109.3           109.4           0.000    
     51      4      2     25       109.3           109.4           0.000    
     52      5      2     25       109.3           109.4           0.000    
     53      4      2     26       109.3           109.4           0.000    
     54      5      2     26       109.3           109.4           0.000    
     55      4      1     26       109.3           109.4           0.000    
     56      5      1     26       109.3           109.4           0.000    
     57      4      1     27       109.3           109.4           0.000    
     58      5      1     27       109.3           109.4           0.000    
     59      4      1     28       109.3           109.4           0.000    
     60      5      1     28       109.3           109.4           0.000    
     61      4      1     29       109.3           109.4           0.000    
     62      5      1     29       109.3           109.4           0.000    
     63      4      1     30       109.3           109.4           0.000    
     64      5      1     30       109.3           109.4           0.000    
     65      4      1     31       109.3           109.4           0.000    
     66      5      1     31       109.3           109.4           0.000    
     67      4      1     32       109.3           109.4           0.000    
     68      5      1     32       109.3           109.4           0.000    
     69      4      1     33       109.3           109.4           0.000    
     70      5      1     33       109.3           109.4           0.000    
     71      4      1     34       109.3           109.4           0.000    
     72      5      1     34       109.3           109.4           0.000    
     73      4      1     35       109.3           109.4           0.000    
     74      5      1     35       109.3           109.4           0.000    
     75      4     36     35       109.1           109.2           0.000    
     76      5     36     35       109.1           109.2           0.000    
     77      4     35     34       109.1           109.2           0.000    
     78      5     35     34       109.1           109.2           0.000    
     79      4     36     34       109.1           109.2           0.000    
     80      5     36     34       109.1           109.2           0.000    
     81      4     36     33       109.1           109.2           0.000    
     82      5     36     33       109.1           109.2           0.000    
     83      4     36     32       109.1           109.2           0.000    
     84      5     36     32       109.1           109.2           0.000    
     85      4     37     32       109.1           109.2           0.000    
     86      5     37     32       109.1           109.2           0.000    
     87      4     37     31       109.1           109.2           0.000    
     88      5     37     31       109.1           109.2           0.000    
     89      4     38     31       109.1           109.2           0.000    
     90      5     38     31       109.1           109.2           0.000    
     91      4     38     30       109.1           109.2           0.000    
     92      5     38     30       109.1           109.2           0.000    
     93      4     39     30       109.1           109.2           0.000    
     94      5     39     30       109.1           109.2           0.000    
     95      4     39     29       109.1           109.2           0.000    
     96      5     39     29       109.1           109.2           0.000    
     97      4     40     29       109.1           109.2           0.000    
     98      5     40     29       109.1           109.2           0.000    
     99      4     40     28       109.1           109.2           0.000    
    100      5     40     28       109.1           109.2           0.000    
    101      4     40     27       109.1           109.2           0.000    
    102      5     40     27       109.1           109.2           0.000    
    103      4     41     27       109.1           109.2           0.000    
    104      5     41     27       109.1           109.2           0.000    
    105      4     41     26       109.1           109.2           0.000    
    106      5     41     26       109.1           109.2           0.000    
    107      4     41     25       109.1           109.2           0.000    
    108      5     41     25       109.1           109.2           0.000    
    109      4     41     24       109.1           109.2           0.000    
    110      5     41     24       109.1           109.2           0.000    
    111      4     41     23       109.1           109.2           0.000    
    112      5     41     23       109.1           109.2           0.000    
    113      4     41     22       109.1           109.2           0.000    
    114      5     41     22       109.1           109.2           0.000    
    115      4     42     22       109.1           109.2           0.000    
    116      5     42     22       109.1           109.2           0.000    
    117      4     42     21       109.1           109.2           0.000    
    118      5     42     21       109.1           109.2           0.000    
    119      4     42     20       109.1           109.2           0.000    
    120      5     42     20       109.1           109.2           0.000    
    121      4     42     19       109.1           109.2           0.000    
    122      5     42     19       109.1           109.2           0.000    
    123      4     43     18       109.1           109.2           0.000    
    124      5     43     18       109.1           109.2           0.000    
    125      4     42     18       109.1           109.2           0.000    
    126      5     42     18       109.1           109.2           0.000    
    127      4     42     17       109.1           109.2           0.000    
    128      5     42     17       109.1           109.2           0.000    
    129      4     42     16       109.1           109.2           0.000    
    130      5     42     16       109.1           109.2           0.000    
    131      4     42     15       109.1           109.2           0.000    
    132      5     42     15       109.1           109.2           0.000    
    133      4     43     15       109.1           109.2           0.000    
    134      5     43     15       109.1           109.2           0.000    
    135      4     43     14       109.1           109.2           0.000    
    136      5     43     14       109.1           109.2           0.000    
    137      4     43     13       109.1           109.2           0.000    
    138      5     43     13       109.1           109.2           0.000    
    139      4     43     12       109.1           109.2           0.000    
    140      5     43     12       109.1           109.2           0.000    
    141      4     43     11       109.1           109.2           0.000    
    142      5     43     11       109.1           109.2           0.000    
    143      4     43     10       109.1           109.2           0.000    
    144      5     43     10       109.1           109.2           0.000    
    145      4     44     10       109.1           109.2           0.000    
    146      5     44     10       109.1           109.2           0.000    
    147      4     44      9       109.1           109.2           0.000    
    148      5     44      9       109.1           109.2           0.000    
    149      4     44      8       109.1           109.2           0.000    
    150      5     44      8       109.1           109.2           0.000    
    151      4     44      7       109.1           109.2           0.000    
    152      5     44      7       109.1           109.2           0.000    
    153      4     44      6       109.1           109.2           0.000    
    154      5     44      6       109.1           109.2           0.000    
    155      4     44      5       109.1           109.2           0.000    
    156      5     44      5       109.1           109.2           0.000    
    157      4     44      4       109.1           109.2           0.000    
    158      5     44      4       109.1           109.2           0.000    
    159      4     44      3       109.1           109.2           0.000    
    160      5     44      3       109.1           109.2           0.000    
    161      4     45      3       109.1           109.2           0.000    
    162      5     45      3       109.1           109.2           0.000    
    163      4     45      2       109.1           109.2           0.000    
    164      5     45      2       109.1           109.2           0.000    
    165      4     45      1       109.0           109.2           0.000    
    166      5     45      1       109.0           109.2           0.000    


    166 TIME-VARIANT SPECIFIED-HEAD CELLS

 SOLVING FOR HEAD 


     3 CALLS TO PCG ROUTINE FOR TIME STEP   1 IN STRESS PERIOD   17
    56 TOTAL ITERATIONS

 MAXIMUM HEAD CHANGE FOR EACH ITERATION (1 INDICATES THE FIRST INNER ITERATION):

    HEAD CHANGE    HEAD CHANGE    HEAD CHANGE    HEAD CHANGE    HEAD CHANGE 
   LAYER,ROW,COL  LAYER,ROW,COL  LAYER,ROW,COL  LAYER,ROW,COL  LAYER,ROW,COL
 ---------------------------------------------------------------------------
  1  0.3401      0 -0.1588      0 -0.1263      0  0.1555      0 -0.1133    
   (  5, 43,  5)  (  5, 40,  1)  (  5, 42,  1)  (  5, 38,  1)  (  5, 35,  1)
  0  0.6913E-01  0  0.4492E-01  0 -0.2754E-01  0  0.2909E-01  0 -0.2143E-01
   (  5, 33,  2)  (  5, 41,  5)  (  5, 40,  1)  (  5, 37,  1)  (  5, 40,  5)
  0  0.1692E-01  0 -0.1051E-01  0 -0.7785E-02  0  0.6875E-02  0 -0.5641E-02
   (  5, 39,  1)  (  5, 42,  1)  (  5, 42,  6)  (  5, 37,  8)  (  5, 35,  8)
  0 -0.3765E-02  0  0.2457E-02  0 -0.2260E-02  0  0.1527E-02  0  0.1184E-02
   (  5, 38,  4)  (  5, 31,  1)  (  5, 32,  3)  (  5, 28,  8)  (  5, 38,  4)
  0 -0.9950E-03  0  0.8853E-03  0  0.5270E-03  0 -0.4424E-03  0  0.3729E-03
   (  5, 37,  1)  (  5, 40,  2)  (  5, 14,  1)  (  5, 13,  1)  (  5, 12,  1)
  0 -0.2288E-03  0  0.1810E-03  0 -0.1350E-03  0 -0.8290E-04  0 -0.5435E-04
   (  5, 13,  1)  (  5, 38,  1)  (  5, 36,  1)  (  5, 13,  2)  (  5, 41,  2)
  1  0.3827E-03  0  0.5383E-03  0 -0.1890E-03  0  0.3889E-03  0 -0.2113E-03
   (  5, 40,  7)  (  5, 29,  1)  (  5, 38,  1)  (  5, 37,  1)  (  5, 33,  1)
  0  0.1308E-03  0 -0.9138E-04  0 -0.7612E-04  0  0.5530E-04  0  0.3582E-04
   (  5, 35,  5)  (  5, 34,  4)  (  5, 19,  1)  (  5, 23,  5)  (  5, 33,  5)
  0  0.3936E-04  0 -0.2394E-04  0 -0.2666E-04  0  0.1575E-04  0  0.1349E-04
   (  5, 30, 10)  (  5, 40,  6)  (  5, 29, 10)  (  5, 38,  7)  (  5, 15,  1)
  0 -0.1081E-04  0  0.7400E-05  0 -0.8057E-05  0 -0.5698E-05  0  0.3685E-05
   (  5, 15,  1)  (  5, 35,  3)  (  5, 33,  1)  (  5, 12,  1)  (  5, 12,  1)
  0  0.2079E-05  0 -0.2085E-05  0  0.1580E-05  0  0.1293E-05  0 -0.6215E-06
   (  5, 33,  1)  (  5, 36,  1)  (  5, 34,  1)  (  5, 31,  7)  (  5, 28,  7)
  1  0.8010E-06
   (  5, 37,  1)

 MAXIMUM RESIDUAL FOR EACH ITERATION (1 INDICATES THE FIRST INNER ITERATION):

    RESIDUAL       RESIDUAL       RESIDUAL       RESIDUAL       RESIDUAL    
   LAYER,ROW,COL  LAYER,ROW,COL  LAYER,ROW,COL  LAYER,ROW,COL  LAYER,ROW,COL
 ---------------------------------------------------------------------------
  1 -0.1229E-02  0 -0.9645E-03  0 -0.7896E-03  0 -0.6432E-03  0 -0.5450E-03
   (  4, 44,  2)  (  4, 35, 35)  (  4, 35, 35)  (  3, 40, 27)  (  3, 40, 27)
  0 -0.4402E-03  0 -0.3386E-03  0 -0.2676E-03  0 -0.2010E-03  0  0.1590E-03
   (  3, 40, 27)  (  3, 40, 27)  (  3, 40, 27)  (  4, 35, 35)  (  3, 35, 35)
  0  0.1207E-03  0  0.8727E-04  0  0.6166E-04  0  0.4900E-04  0  0.3934E-04
   (  3, 35, 35)  (  3, 35, 35)  (  4, 34, 35)  (  4, 34, 35)  (  4, 34, 35)
  0  0.3085E-04  0  0.2799E-04  0  0.2217E-04  0  0.1695E-04  0  0.1341E-04
   (  4, 34, 35)  (  4, 34, 35)  (  4, 34, 35)  (  4, 34, 35)  (  4, 34, 35)
  0  0.1175E-04  0  0.8711E-05  0  0.6483E-05  0  0.4625E-05  0  0.3364E-05
   (  4, 34, 35)  (  4, 34, 35)  (  4, 34, 35)  (  4, 34, 35)  (  4, 34, 35)
  0  0.2358E-05  0  0.1748E-05  0 -0.1459E-05  0 -0.1057E-05  0 -0.7444E-06
   (  4, 34, 35)  (  4, 34, 35)  (  4, 35, 35)  (  4, 35, 35)  (  4, 35, 35)
  1 -0.2165E-05  0 -0.1405E-05  0 -0.6813E-06  0 -0.7270E-06  0 -0.6277E-06
   (  3, 44,  5)  (  3, 40,  6)  (  4, 43,  4)  (  4, 43,  4)  (  4, 43,  4)
  0 -0.5003E-06  0 -0.3992E-06  0 -0.3575E-06  0 -0.3265E-06  0 -0.2933E-06
   (  4, 43,  4)  (  4, 43,  1)  (  4, 43,  1)  (  4, 44,  1)  (  4, 44,  1)
  0 -0.2391E-06  0 -0.1806E-06  0 -0.1359E-06  0  0.9992E-07  0  0.7830E-07
   (  4, 44,  1)  (  4, 44,  1)  (  4, 44,  1)  (  4, 43,  4)  (  4, 43,  4)
  0  0.6011E-07  0  0.5131E-07  0  0.4387E-07  0  0.3200E-07  0 -0.2410E-07
   (  4, 44,  2)  (  4, 44,  2)  (  4, 44,  2)  (  4, 44,  2)  (  4, 42,  2)
  0 -0.1928E-07  0 -0.1498E-07  0 -0.1042E-07  0 -0.7784E-08  0 -0.5165E-08
   (  4, 42,  2)  (  4, 42,  2)  (  4, 43,  2)  (  4, 43,  2)  (  4, 43,  2)
  1 -0.4969E-08
   (  4, 43,  2)



 OUTPUT CONTROL FOR STRESS PERIOD   17   TIME STEP    1
    SAVE HEAD FOR ALL LAYERS
    SAVE DRAWDOWN FOR ALL LAYERS
    SAVE BUDGET
    PRINT BUDGET
 UBDSV1 SAVING "         STORAGE" ON UNIT   9 AT TIME STEP  1, STRESS PERIOD  17
 UBDSV2 SAVING "   CONSTANT HEAD" ON UNIT   9 AT TIME STEP  1, STRESS PERIOD  17
 UBDSV1 SAVING "FLOW RIGHT FACE " ON UNIT   9 AT TIME STEP  1, STRESS PERIOD  17
 UBDSV1 SAVING "FLOW FRONT FACE " ON UNIT   9 AT TIME STEP  1, STRESS PERIOD  17
 UBDSV1 SAVING "FLOW LOWER FACE " ON UNIT   9 AT TIME STEP  1, STRESS PERIOD  17
 UBDSV3 SAVING "        RECHARGE" ON UNIT   9 AT TIME STEP  1, STRESS PERIOD  17

 HEAD WILL BE SAVED ON UNIT   37 AT END OF TIME STEP    1, STRESS PERIOD   17

 DRAWDOWN WILL BE SAVED ON UNIT   38 AT END OF TIME STEP    1, STRESS PERIOD   17
1
  VOLUMETRIC BUDGET FOR ENTIRE MODEL AT END OF TIME STEP    1, STRESS PERIOD  17
  ------------------------------------------------------------------------------

     CUMULATIVE VOLUMES      L**3       RATES FOR THIS TIME STEP      L**3/T
     ------------------                 ------------------------

           IN:                                      IN:
           ---                                      ---
             STORAGE =        6229.6016               STORAGE =           0.0000
       CONSTANT HEAD =        4331.3716         CONSTANT HEAD =       2.5569E-03
            RECHARGE =         211.7745              RECHARGE =       1.0213E-04

            TOTAL IN =       10772.7471              TOTAL IN =       2.6590E-03

          OUT:                                     OUT:
          ----                                     ----
             STORAGE =         418.9621               STORAGE =       2.3667E-03
       CONSTANT HEAD =       10354.0322         CONSTANT HEAD =       2.9245E-04
            RECHARGE =           0.0000              RECHARGE =           0.0000

           TOTAL OUT =       10772.9941             TOTAL OUT =       2.6591E-03

            IN - OUT =          -0.2471              IN - OUT =      -9.7090E-08

 PERCENT DISCREPANCY =          -0.00     PERCENT DISCREPANCY =          -0.00






         TIME SUMMARY AT END OF TIME STEP    1 IN STRESS PERIOD   17
                    SECONDS     MINUTES      HOURS       DAYS        YEARS
                    -----------------------------------------------------------
   TIME STEP LENGTH  86400.      1440.0      24.000      1.0000     2.73785E-03
 STRESS PERIOD TIME  86400.      1440.0      24.000      1.0000     2.73785E-03
         TOTAL TIME 2.07360E+06  34560.      576.00      24.000     6.57084E-02
1
1
                            STRESS PERIOD NO.   18, LENGTH =   86400.00    
                            -----------------------------------------------

                              NUMBER OF TIME STEPS =     1

                               MULTIPLIER FOR DELT =     1.000

                            INITIAL TIME STEP SIZE =   86400.00    

 REUSING RECH FROM LAST STRESS PERIOD

 CHD NO.   LAYER   ROW   COL    START HEAD        END HEAD         IFACE           
 ----------------------------------------------------------------------------------
      1      4      3      1       109.4           109.4           0.000    
      2      5      3      1       109.4           109.4           0.000    
      3      4      3      2       109.4           109.4           0.000    
      4      5      3      2       109.4           109.4           0.000    
      5      4      3      3       109.4           109.4           0.000    
      6      5      3      3       109.4           109.4           0.000    
      7      4      3      4       109.4           109.4           0.000    
      8      5      3      4       109.4           109.4           0.000    
      9      4      3      5       109.4           109.4           0.000    
     10      5      3      5       109.4           109.4           0.000    
     11      4      3      6       109.4           109.4           0.000    
     12      5      3      6       109.4           109.4           0.000    
     13      4      3      7       109.4           109.4           0.000    
     14      5      3      7       109.4           109.4           0.000    
     15      4      3      8       109.4           109.4           0.000    
     16      5      3      8       109.4           109.4           0.000    
     17      4      2      8       109.4           109.4           0.000    
     18      5      2      8       109.4           109.4           0.000    
     19      4      2      9       109.4           109.4           0.000    
     20      5      2      9       109.4           109.4           0.000    
     21      4      2     10       109.4           109.4           0.000    
     22      5      2     10       109.4           109.4           0.000    
     23      4      2     11       109.4           109.4           0.000    
     24      5      2     11       109.4           109.4           0.000    
     25      4      2     12       109.4           109.4           0.000    
     26      5      2     12       109.4           109.4           0.000    
     27      4      2     13       109.4           109.4           0.000    
     28      5      2     13       109.4           109.4           0.000    
     29      4      2     14       109.4           109.4           0.000    
     30      5      2     14       109.4           109.4           0.000    
     31      4      2     15       109.4           109.4           0.000    
     32      5      2     15       109.4           109.4           0.000    
     33      4      2     16       109.4           109.4           0.000    
     34      5      2     16       109.4           109.4           0.000    
     35      4      2     17       109.4           109.4           0.000    
     36      5      2     17       109.4           109.4           0.000    
     37      4      2     18       109.4           109.4           0.000    
     38      5      2     18       109.4           109.4           0.000    
     39      4      2     19       109.4           109.4           0.000    
     40      5      2     19       109.4           109.4           0.000    
     41      4      2     20       109.4           109.4           0.000    
     42      5      2     20       109.4           109.4           0.000    
     43      4      2     21       109.4           109.4           0.000    
     44      5      2     21       109.4           109.4           0.000    
     45      4      2     22       109.4           109.4           0.000    
     46      5      2     22       109.4           109.4           0.000    
     47      4      2     23       109.4           109.4           0.000    
     48      5      2     23       109.4           109.4           0.000    
     49      4      2     24       109.4           109.4           0.000    
     50      5      2     24       109.4           109.4           0.000    
     51      4      2     25       109.4           109.4           0.000    
     52      5      2     25       109.4           109.4           0.000    
     53      4      2     26       109.4           109.4           0.000    
     54      5      2     26       109.4           109.4           0.000    
     55      4      1     26       109.4           109.4           0.000    
     56      5      1     26       109.4           109.4           0.000    
     57      4      1     27       109.4           109.4           0.000    
     58      5      1     27       109.4           109.4           0.000    
     59      4      1     28       109.4           109.4           0.000    
     60      5      1     28       109.4           109.4           0.000    
     61      4      1     29       109.4           109.4           0.000    
     62      5      1     29       109.4           109.4           0.000    
     63      4      1     30       109.4           109.4           0.000    
     64      5      1     30       109.4           109.4           0.000    
     65      4      1     31       109.4           109.4           0.000    
     66      5      1     31       109.4           109.4           0.000    
     67      4      1     32       109.4           109.4           0.000    
     68      5      1     32       109.4           109.4           0.000    
     69      4      1     33       109.4           109.4           0.000    
     70      5      1     33       109.4           109.4           0.000    
     71      4      1     34       109.4           109.4           0.000    
     72      5      1     34       109.4           109.4           0.000    
     73      4      1     35       109.4           109.4           0.000    
     74      5      1     35       109.4           109.4           0.000    
     75      4     36     35       109.2           109.2           0.000    
     76      5     36     35       109.2           109.2           0.000    
     77      4     35     34       109.2           109.2           0.000    
     78      5     35     34       109.2           109.2           0.000    
     79      4     36     34       109.2           109.2           0.000    
     80      5     36     34       109.2           109.2           0.000    
     81      4     36     33       109.2           109.2           0.000    
     82      5     36     33       109.2           109.2           0.000    
     83      4     36     32       109.2           109.2           0.000    
     84      5     36     32       109.2           109.2           0.000    
     85      4     37     32       109.2           109.2           0.000    
     86      5     37     32       109.2           109.2           0.000    
     87      4     37     31       109.2           109.2           0.000    
     88      5     37     31       109.2           109.2           0.000    
     89      4     38     31       109.2           109.2           0.000    
     90      5     38     31       109.2           109.2           0.000    
     91      4     38     30       109.2           109.2           0.000    
     92      5     38     30       109.2           109.2           0.000    
     93      4     39     30       109.2           109.2           0.000    
     94      5     39     30       109.2           109.2           0.000    
     95      4     39     29       109.2           109.2           0.000    
     96      5     39     29       109.2           109.2           0.000    
     97      4     40     29       109.2           109.2           0.000    
     98      5     40     29       109.2           109.2           0.000    
     99      4     40     28       109.2           109.2           0.000    
    100      5     40     28       109.2           109.2           0.000    
    101      4     40     27       109.2           109.2           0.000    
    102      5     40     27       109.2           109.2           0.000    
    103      4     41     27       109.2           109.2           0.000    
    104      5     41     27       109.2           109.2           0.000    
    105      4     41     26       109.2           109.2           0.000    
    106      5     41     26       109.2           109.2           0.000    
    107      4     41     25       109.2           109.2           0.000    
    108      5     41     25       109.2           109.2           0.000    
    109      4     41     24       109.2           109.2           0.000    
    110      5     41     24       109.2           109.2           0.000    
    111      4     41     23       109.2           109.2           0.000    
    112      5     41     23       109.2           109.2           0.000    
    113      4     41     22       109.2           109.2           0.000    
    114      5     41     22       109.2           109.2           0.000    
    115      4     42     22       109.2           109.2           0.000    
    116      5     42     22       109.2           109.2           0.000    
    117      4     42     21       109.2           109.2           0.000    
    118      5     42     21       109.2           109.2           0.000    
    119      4     42     20       109.2           109.2           0.000    
    120      5     42     20       109.2           109.2           0.000    
    121      4     42     19       109.2           109.2           0.000    
    122      5     42     19       109.2           109.2           0.000    
    123      4     43     18       109.2           109.2           0.000    
    124      5     43     18       109.2           109.2           0.000    
    125      4     42     18       109.2           109.2           0.000    
    126      5     42     18       109.2           109.2           0.000    
    127      4     42     17       109.2           109.2           0.000    
    128      5     42     17       109.2           109.2           0.000    
    129      4     42     16       109.2           109.2           0.000    
    130      5     42     16       109.2           109.2           0.000    
    131      4     42     15       109.2           109.2           0.000    
    132      5     42     15       109.2           109.2           0.000    
    133      4     43     15       109.2           109.2           0.000    
    134      5     43     15       109.2           109.2           0.000    
    135      4     43     14       109.2           109.2           0.000    
    136      5     43     14       109.2           109.2           0.000    
    137      4     43     13       109.2           109.2           0.000    
    138      5     43     13       109.2           109.2           0.000    
    139      4     43     12       109.2           109.2           0.000    
    140      5     43     12       109.2           109.2           0.000    
    141      4     43     11       109.2           109.2           0.000    
    142      5     43     11       109.2           109.2           0.000    
    143      4     43     10       109.2           109.2           0.000    
    144      5     43     10       109.2           109.2           0.000    
    145      4     44     10       109.2           109.2           0.000    
    146      5     44     10       109.2           109.2           0.000    
    147      4     44      9       109.2           109.2           0.000    
    148      5     44      9       109.2           109.2           0.000    
    149      4     44      8       109.2           109.2           0.000    
    150      5     44      8       109.2           109.2           0.000    
    151      4     44      7       109.2           109.2           0.000    
    152      5     44      7       109.2           109.2           0.000    
    153      4     44      6       109.2           109.2           0.000    
    154      5     44      6       109.2           109.2           0.000    
    155      4     44      5       109.2           109.2           0.000    
    156      5     44      5       109.2           109.2           0.000    
    157      4     44      4       109.2           109.2           0.000    
    158      5     44      4       109.2           109.2           0.000    
    159      4     44      3       109.2           109.2           0.000    
    160      5     44      3       109.2           109.2           0.000    
    161      4     45      3       109.2           109.2           0.000    
    162      5     45      3       109.2           109.2           0.000    
    163      4     45      2       109.2           109.2           0.000    
    164      5     45      2       109.2           109.2           0.000    
    165      4     45      1       109.2           109.2           0.000    
    166      5     45      1       109.2           109.2           0.000    


    166 TIME-VARIANT SPECIFIED-HEAD CELLS

 SOLVING FOR HEAD 


     3 CALLS TO PCG ROUTINE FOR TIME STEP   1 IN STRESS PERIOD   18
    55 TOTAL ITERATIONS

 MAXIMUM HEAD CHANGE FOR EACH ITERATION (1 INDICATES THE FIRST INNER ITERATION):

    HEAD CHANGE    HEAD CHANGE    HEAD CHANGE    HEAD CHANGE    HEAD CHANGE 
   LAYER,ROW,COL  LAYER,ROW,COL  LAYER,ROW,COL  LAYER,ROW,COL  LAYER,ROW,COL
 ---------------------------------------------------------------------------
  1  0.1860      0 -0.1144      0  0.8073E-01  0 -0.6224E-01  0  0.4109E-01
   (  5, 43,  5)  (  5, 39,  1)  (  5, 35,  1)  (  5, 33,  2)  (  5, 30,  2)
  0 -0.4439E-01  0  0.2457E-01  0 -0.1694E-01  0  0.1704E-01  0  0.1510E-01
   (  5, 37,  1)  (  5, 41,  5)  (  5, 37,  5)  (  5, 37,  1)  (  5, 36,  5)
  0  0.9062E-02  0 -0.6327E-02  0  0.5697E-02  0 -0.4053E-02  0 -0.1934E-02
   (  5, 39,  1)  (  5, 37,  1)  (  5, 36,  8)  (  5, 34,  9)  (  5, 27, 10)
  0  0.1936E-02  0  0.1280E-02  0 -0.1171E-02  0  0.1196E-02  0 -0.7646E-03
   (  5, 32,  8)  (  5, 30,  1)  (  5, 35,  1)  (  5, 13,  1)  (  5, 13,  1)
  0  0.5642E-03  0 -0.3991E-03  0 -0.2769E-03  0 -0.2315E-03  0  0.1706E-03
   (  5, 35,  1)  (  5, 38,  1)  (  5, 15,  1)  (  5, 39,  1)  (  5, 41,  1)
  0 -0.1078E-03  0  0.1135E-03  0 -0.7194E-04  0 -0.5724E-04  0 -0.3642E-04
   (  5, 40,  2)  (  5, 38,  1)  (  5, 36,  1)  (  5, 13,  2)  (  5, 33,  5)
  1  0.2643E-03  0  0.2672E-03  0  0.2542E-03  0  0.1531E-03  0  0.1199E-03
   (  5, 31,  1)  (  3, 18,  7)  (  5, 27,  1)  (  5, 21,  4)  (  5, 32,  5)
  0  0.1450E-03  0 -0.9984E-04  0  0.5954E-04  0  0.5310E-04  0  0.4002E-04
   (  5, 38,  1)  (  5, 36,  1)  (  5, 33,  1)  (  5, 27,  4)  (  5, 34,  4)
  0 -0.2801E-04  0 -0.2539E-04  0  0.1946E-04  0 -0.1913E-04  0  0.1158E-04
   (  5, 33,  1)  (  5, 39,  1)  (  5, 14,  1)  (  5, 13,  1)  (  5, 14,  1)
  0 -0.7620E-05  0  0.5359E-05  0 -0.4601E-05  0 -0.2870E-05  0  0.3142E-05
   (  5, 14,  2)  (  5, 13,  2)  (  5, 12,  1)  (  5, 33,  1)  (  5, 12,  1)
  0  0.1578E-05  0  0.1400E-05  0 -0.1024E-05  0  0.8510E-06  1 -0.6514E-06
   (  5, 26,  8)  (  5, 33,  1)  (  5, 36,  1)  (  5, 39,  1)  (  5, 12,  2)

 MAXIMUM RESIDUAL FOR EACH ITERATION (1 INDICATES THE FIRST INNER ITERATION):

    RESIDUAL       RESIDUAL       RESIDUAL       RESIDUAL       RESIDUAL    
   LAYER,ROW,COL  LAYER,ROW,COL  LAYER,ROW,COL  LAYER,ROW,COL  LAYER,ROW,COL
 ---------------------------------------------------------------------------
  1 -0.4123E-03  0 -0.3476E-03  0 -0.2610E-03  0  0.2297E-03  0  0.2144E-03
   (  4, 35, 35)  (  4, 35, 35)  (  4, 35, 35)  (  4, 43,  6)  (  4, 43,  6)
  0  0.1890E-03  0  0.1527E-03  0  0.1276E-03  0  0.9938E-04  0  0.7569E-04
   (  4, 43,  5)  (  4, 43,  4)  (  4, 43,  4)  (  4, 43,  4)  (  4, 44,  2)
  0  0.6204E-04  0  0.4940E-04  0  0.3589E-04  0  0.2553E-04  0  0.1847E-04
   (  4, 44,  2)  (  4, 44,  2)  (  4, 44,  2)  (  4, 44,  2)  (  4, 44,  2)
  0  0.1254E-04  0  0.9825E-05  0  0.7559E-05  0  0.5460E-05  0  0.4153E-05
   (  4, 44,  2)  (  4, 44,  2)  (  4, 44,  2)  (  4, 34, 35)  (  4, 34, 35)
  0  0.3243E-05  0  0.2584E-05  0  0.1823E-05  0 -0.1328E-05  0 -0.9928E-06
   (  4, 34, 35)  (  4, 34, 35)  (  4, 34, 35)  (  4, 35, 35)  (  4, 35, 35)
  0 -0.7559E-06  0 -0.6312E-06  0 -0.4606E-06  0 -0.2983E-06  0  0.2263E-06
   (  4, 35, 35)  (  4, 35, 35)  (  4, 35, 35)  (  4, 35, 35)  (  3,  3,  2)
  1 -0.1628E-05  0 -0.1161E-05  0 -0.6523E-06  0 -0.4196E-06  0  0.2947E-06
   (  3, 32,  7)  (  3, 32,  7)  (  3, 19, 10)  (  3, 19, 10)  (  2,  2, 26)
  0 -0.3320E-06  0 -0.2767E-06  0 -0.2715E-06  0 -0.2569E-06  0 -0.2144E-06
   (  4, 41,  1)  (  4, 42,  1)  (  4, 43,  1)  (  4, 43,  1)  (  4, 44,  1)
  0 -0.1913E-06  0 -0.1571E-06  0 -0.1172E-06  0 -0.8511E-07  0  0.6139E-07
   (  4, 44,  1)  (  4, 44,  1)  (  4, 44,  1)  (  4, 44,  1)  (  4, 43,  4)
  0  0.5248E-07  0  0.4408E-07  0  0.3474E-07  0  0.3083E-07  0  0.2175E-07
   (  4, 44,  2)  (  4, 44,  2)  (  4, 44,  2)  (  4, 44,  2)  (  4, 44,  2)
  0  0.1452E-07  0  0.1050E-07  0  0.8657E-08  0 -0.6473E-08  1  0.5744E-08
   (  4, 44,  2)  (  4, 44,  2)  (  4, 44,  2)  (  4, 43,  2)  (  4, 44,  2)



 OUTPUT CONTROL FOR STRESS PERIOD   18   TIME STEP    1
    SAVE HEAD FOR ALL LAYERS
    SAVE DRAWDOWN FOR ALL LAYERS
    SAVE BUDGET
    PRINT BUDGET
 UBDSV1 SAVING "         STORAGE" ON UNIT   9 AT TIME STEP  1, STRESS PERIOD  18
 UBDSV2 SAVING "   CONSTANT HEAD" ON UNIT   9 AT TIME STEP  1, STRESS PERIOD  18
 UBDSV1 SAVING "FLOW RIGHT FACE " ON UNIT   9 AT TIME STEP  1, STRESS PERIOD  18
 UBDSV1 SAVING "FLOW FRONT FACE " ON UNIT   9 AT TIME STEP  1, STRESS PERIOD  18
 UBDSV1 SAVING "FLOW LOWER FACE " ON UNIT   9 AT TIME STEP  1, STRESS PERIOD  18
 UBDSV3 SAVING "        RECHARGE" ON UNIT   9 AT TIME STEP  1, STRESS PERIOD  18

 HEAD WILL BE SAVED ON UNIT   37 AT END OF TIME STEP    1, STRESS PERIOD   18

 DRAWDOWN WILL BE SAVED ON UNIT   38 AT END OF TIME STEP    1, STRESS PERIOD   18
1
  VOLUMETRIC BUDGET FOR ENTIRE MODEL AT END OF TIME STEP    1, STRESS PERIOD  18
  ------------------------------------------------------------------------------

     CUMULATIVE VOLUMES      L**3       RATES FOR THIS TIME STEP      L**3/T
     ------------------                 ------------------------

           IN:                                      IN:
           ---                                      ---
             STORAGE =        6229.6016               STORAGE =           0.0000
       CONSTANT HEAD =        4589.4424         CONSTANT HEAD =       2.9869E-03
            RECHARGE =         220.5985              RECHARGE =       1.0213E-04

            TOTAL IN =       11039.6426              TOTAL IN =       3.0891E-03

          OUT:                                     OUT:
          ----                                     ----
             STORAGE =         629.2170               STORAGE =       2.4335E-03
       CONSTANT HEAD =       10410.6807         CONSTANT HEAD =       6.5565E-04
            RECHARGE =           0.0000              RECHARGE =           0.0000

           TOTAL OUT =       11039.8975             TOTAL OUT =       3.0892E-03

            IN - OUT =          -0.2549              IN - OUT =      -9.6625E-08

 PERCENT DISCREPANCY =          -0.00     PERCENT DISCREPANCY =          -0.00






         TIME SUMMARY AT END OF TIME STEP    1 IN STRESS PERIOD   18
                    SECONDS     MINUTES      HOURS       DAYS        YEARS
                    -----------------------------------------------------------
   TIME STEP LENGTH  86400.      1440.0      24.000      1.0000     2.73785E-03
 STRESS PERIOD TIME  86400.      1440.0      24.000      1.0000     2.73785E-03
         TOTAL TIME 2.16000E+06  36000.      600.00      25.000     6.84463E-02
1
1
                            STRESS PERIOD NO.   19, LENGTH =   259200.0    
                            -----------------------------------------------

                              NUMBER OF TIME STEPS =     3

                               MULTIPLIER FOR DELT =     1.000

                            INITIAL TIME STEP SIZE =   86400.00    

 REUSING RECH FROM LAST STRESS PERIOD

 CHD NO.   LAYER   ROW   COL    START HEAD        END HEAD         IFACE           
 ----------------------------------------------------------------------------------
      1      4      3      1       109.4           109.4           0.000    
      2      5      3      1       109.4           109.4           0.000    
      3      4      3      2       109.4           109.4           0.000    
      4      5      3      2       109.4           109.4           0.000    
      5      4      3      3       109.4           109.4           0.000    
      6      5      3      3       109.4           109.4           0.000    
      7      4      3      4       109.4           109.4           0.000    
      8      5      3      4       109.4           109.4           0.000    
      9      4      3      5       109.4           109.4           0.000    
     10      5      3      5       109.4           109.4           0.000    
     11      4      3      6       109.4           109.4           0.000    
     12      5      3      6       109.4           109.4           0.000    
     13      4      3      7       109.4           109.4           0.000    
     14      5      3      7       109.4           109.4           0.000    
     15      4      3      8       109.4           109.4           0.000    
     16      5      3      8       109.4           109.4           0.000    
     17      4      2      8       109.4           109.4           0.000    
     18      5      2      8       109.4           109.4           0.000    
     19      4      2      9       109.4           109.4           0.000    
     20      5      2      9       109.4           109.4           0.000    
     21      4      2     10       109.4           109.4           0.000    
     22      5      2     10       109.4           109.4           0.000    
     23      4      2     11       109.4           109.4           0.000    
     24      5      2     11       109.4           109.4           0.000    
     25      4      2     12       109.4           109.4           0.000    
     26      5      2     12       109.4           109.4           0.000    
     27      4      2     13       109.4           109.4           0.000    
     28      5      2     13       109.4           109.4           0.000    
     29      4      2     14       109.4           109.4           0.000    
     30      5      2     14       109.4           109.4           0.000    
     31      4      2     15       109.4           109.4           0.000    
     32      5      2     15       109.4           109.4           0.000    
     33      4      2     16       109.4           109.4           0.000    
     34      5      2     16       109.4           109.4           0.000    
     35      4      2     17       109.4           109.4           0.000    
     36      5      2     17       109.4           109.4           0.000    
     37      4      2     18       109.4           109.4           0.000    
     38      5      2     18       109.4           109.4           0.000    
     39      4      2     19       109.4           109.4           0.000    
     40      5      2     19       109.4           109.4           0.000    
     41      4      2     20       109.4           109.4           0.000    
     42      5      2     20       109.4           109.4           0.000    
     43      4      2     21       109.4           109.4           0.000    
     44      5      2     21       109.4           109.4           0.000    
     45      4      2     22       109.4           109.4           0.000    
     46      5      2     22       109.4           109.4           0.000    
     47      4      2     23       109.4           109.4           0.000    
     48      5      2     23       109.4           109.4           0.000    
     49      4      2     24       109.4           109.4           0.000    
     50      5      2     24       109.4           109.4           0.000    
     51      4      2     25       109.4           109.4           0.000    
     52      5      2     25       109.4           109.4           0.000    
     53      4      2     26       109.4           109.4           0.000    
     54      5      2     26       109.4           109.4           0.000    
     55      4      1     26       109.4           109.4           0.000    
     56      5      1     26       109.4           109.4           0.000    
     57      4      1     27       109.4           109.4           0.000    
     58      5      1     27       109.4           109.4           0.000    
     59      4      1     28       109.4           109.4           0.000    
     60      5      1     28       109.4           109.4           0.000    
     61      4      1     29       109.4           109.4           0.000    
     62      5      1     29       109.4           109.4           0.000    
     63      4      1     30       109.4           109.4           0.000    
     64      5      1     30       109.4           109.4           0.000    
     65      4      1     31       109.4           109.4           0.000    
     66      5      1     31       109.4           109.4           0.000    
     67      4      1     32       109.4           109.4           0.000    
     68      5      1     32       109.4           109.4           0.000    
     69      4      1     33       109.4           109.4           0.000    
     70      5      1     33       109.4           109.4           0.000    
     71      4      1     34       109.4           109.4           0.000    
     72      5      1     34       109.4           109.4           0.000    
     73      4      1     35       109.4           109.4           0.000    
     74      5      1     35       109.4           109.4           0.000    
     75      4     36     35       109.2           109.2           0.000    
     76      5     36     35       109.2           109.2           0.000    
     77      4     35     34       109.2           109.2           0.000    
     78      5     35     34       109.2           109.2           0.000    
     79      4     36     34       109.2           109.2           0.000    
     80      5     36     34       109.2           109.2           0.000    
     81      4     36     33       109.2           109.2           0.000    
     82      5     36     33       109.2           109.2           0.000    
     83      4     36     32       109.2           109.2           0.000    
     84      5     36     32       109.2           109.2           0.000    
     85      4     37     32       109.2           109.2           0.000    
     86      5     37     32       109.2           109.2           0.000    
     87      4     37     31       109.2           109.2           0.000    
     88      5     37     31       109.2           109.2           0.000    
     89      4     38     31       109.2           109.2           0.000    
     90      5     38     31       109.2           109.2           0.000    
     91      4     38     30       109.2           109.2           0.000    
     92      5     38     30       109.2           109.2           0.000    
     93      4     39     30       109.2           109.2           0.000    
     94      5     39     30       109.2           109.2           0.000    
     95      4     39     29       109.2           109.2           0.000    
     96      5     39     29       109.2           109.2           0.000    
     97      4     40     29       109.2           109.2           0.000    
     98      5     40     29       109.2           109.2           0.000    
     99      4     40     28       109.2           109.2           0.000    
    100      5     40     28       109.2           109.2           0.000    
    101      4     40     27       109.2           109.2           0.000    
    102      5     40     27       109.2           109.2           0.000    
    103      4     41     27       109.2           109.2           0.000    
    104      5     41     27       109.2           109.2           0.000    
    105      4     41     26       109.2           109.2           0.000    
    106      5     41     26       109.2           109.2           0.000    
    107      4     41     25       109.2           109.2           0.000    
    108      5     41     25       109.2           109.2           0.000    
    109      4     41     24       109.2           109.2           0.000    
    110      5     41     24       109.2           109.2           0.000    
    111      4     41     23       109.2           109.2           0.000    
    112      5     41     23       109.2           109.2           0.000    
    113      4     41     22       109.2           109.2           0.000    
    114      5     41     22       109.2           109.2           0.000    
    115      4     42     22       109.2           109.2           0.000    
    116      5     42     22       109.2           109.2           0.000    
    117      4     42     21       109.2           109.2           0.000    
    118      5     42     21       109.2           109.2           0.000    
    119      4     42     20       109.2           109.2           0.000    
    120      5     42     20       109.2           109.2           0.000    
    121      4     42     19       109.2           109.2           0.000    
    122      5     42     19       109.2           109.2           0.000    
    123      4     43     18       109.2           109.2           0.000    
    124      5     43     18       109.2           109.2           0.000    
    125      4     42     18       109.2           109.2           0.000    
    126      5     42     18       109.2           109.2           0.000    
    127      4     42     17       109.2           109.2           0.000    
    128      5     42     17       109.2           109.2           0.000    
    129      4     42     16       109.2           109.2           0.000    
    130      5     42     16       109.2           109.2           0.000    
    131      4     42     15       109.2           109.2           0.000    
    132      5     42     15       109.2           109.2           0.000    
    133      4     43     15       109.2           109.2           0.000    
    134      5     43     15       109.2           109.2           0.000    
    135      4     43     14       109.2           109.2           0.000    
    136      5     43     14       109.2           109.2           0.000    
    137      4     43     13       109.2           109.2           0.000    
    138      5     43     13       109.2           109.2           0.000    
    139      4     43     12       109.2           109.2           0.000    
    140      5     43     12       109.2           109.2           0.000    
    141      4     43     11       109.2           109.2           0.000    
    142      5     43     11       109.2           109.2           0.000    
    143      4     43     10       109.2           109.2           0.000    
    144      5     43     10       109.2           109.2           0.000    
    145      4     44     10       109.2           109.2           0.000    
    146      5     44     10       109.2           109.2           0.000    
    147      4     44      9       109.2           109.2           0.000    
    148      5     44      9       109.2           109.2           0.000    
    149      4     44      8       109.2           109.2           0.000    
    150      5     44      8       109.2           109.2           0.000    
    151      4     44      7       109.2           109.2           0.000    
    152      5     44      7       109.2           109.2           0.000    
    153      4     44      6       109.2           109.2           0.000    
    154      5     44      6       109.2           109.2           0.000    
    155      4     44      5       109.2           109.2           0.000    
    156      5     44      5       109.2           109.2           0.000    
    157      4     44      4       109.2           109.2           0.000    
    158      5     44      4       109.2           109.2           0.000    
    159      4     44      3       109.2           109.2           0.000    
    160      5     44      3       109.2           109.2           0.000    
    161      4     45      3       109.2           109.2           0.000    
    162      5     45      3       109.2           109.2           0.000    
    163      4     45      2       109.2           109.2           0.000    
    164      5     45      2       109.2           109.2           0.000    
    165      4     45      1       109.2           109.2           0.000    
    166      5     45      1       109.2           109.2           0.000    


    166 TIME-VARIANT SPECIFIED-HEAD CELLS

 SOLVING FOR HEAD 


     3 CALLS TO PCG ROUTINE FOR TIME STEP   1 IN STRESS PERIOD   19
    45 TOTAL ITERATIONS

 MAXIMUM HEAD CHANGE FOR EACH ITERATION (1 INDICATES THE FIRST INNER ITERATION):

    HEAD CHANGE    HEAD CHANGE    HEAD CHANGE    HEAD CHANGE    HEAD CHANGE 
   LAYER,ROW,COL  LAYER,ROW,COL  LAYER,ROW,COL  LAYER,ROW,COL  LAYER,ROW,COL
 ---------------------------------------------------------------------------
  1 -0.3021E-01  0 -0.2049E-01  0  0.2047E-01  0 -0.2703E-01  0  0.1689E-01
   (  5, 43,  5)  (  5, 30,  1)  (  5, 41,  1)  (  5, 38,  1)  (  5, 35,  1)
  0 -0.1027E-01  0 -0.6705E-02  0  0.4508E-02  0 -0.3808E-02  0  0.3213E-02
   (  5, 33,  2)  (  5, 41,  5)  (  5, 40,  1)  (  5, 37,  1)  (  5, 40,  4)
  0 -0.2980E-02  0  0.1884E-02  0  0.1564E-02  0  0.9449E-03  0  0.8506E-03
   (  5, 39,  1)  (  5, 38,  1)  (  5, 36,  5)  (  5, 22, 10)  (  5, 14,  1)
  0  0.6330E-03  0 -0.4648E-03  0  0.4498E-03  0 -0.4601E-03  0  0.2312E-03
   (  5, 35,  7)  (  5, 31,  1)  (  5, 35,  1)  (  5, 13,  1)  (  5, 12,  1)
  0  0.1577E-03  0 -0.1311E-03  0  0.9761E-04  0  0.7159E-04  0 -0.6318E-04
   (  5, 37,  1)  (  5, 35,  1)  (  5, 36,  4)  (  5, 26, 11)  (  5, 41,  2)
  0  0.2969E-04  0 -0.3228E-04  0  0.2497E-04  0  0.1383E-04  0 -0.1458E-04
   (  5, 36,  7)  (  5, 38,  1)  (  5, 36,  1)  (  5, 32,  6)  (  5, 31,  2)
  1  0.1947E-04  0  0.1701E-04  0  0.1791E-04  0  0.1770E-04  0 -0.1538E-04
   (  5, 32,  1)  (  2, 17,  6)  (  5, 26,  2)  (  5, 35,  2)  (  5, 36,  1)
  0  0.1320E-04  0  0.7399E-05  0 -0.7172E-05  0  0.5077E-05  0  0.2924E-05
   (  5, 39,  1)  (  5, 21,  1)  (  5, 38,  1)  (  5, 39,  1)  (  5, 34,  4)
  0  0.3158E-05  0 -0.2137E-05  0  0.1405E-05  0 -0.8160E-06  1  0.6877E-06
   (  5, 39,  1)  (  5, 41,  2)  (  5, 14,  1)  (  5, 14,  1)  (  5, 13,  1)

 MAXIMUM RESIDUAL FOR EACH ITERATION (1 INDICATES THE FIRST INNER ITERATION):

    RESIDUAL       RESIDUAL       RESIDUAL       RESIDUAL       RESIDUAL    
   LAYER,ROW,COL  LAYER,ROW,COL  LAYER,ROW,COL  LAYER,ROW,COL  LAYER,ROW,COL
 ---------------------------------------------------------------------------
  1  0.2677E-03  0  0.2165E-03  0  0.1410E-03  0  0.1031E-03  0  0.8470E-04
   (  4, 44,  2)  (  4, 44,  2)  (  4, 44,  2)  (  3, 40, 27)  (  3, 40, 27)
  0  0.6977E-04  0  0.5581E-04  0  0.4698E-04  0  0.4074E-04  0  0.3250E-04
   (  3, 40, 27)  (  4, 35, 35)  (  4, 35, 35)  (  4, 35, 35)  (  4, 35, 35)
  0  0.2333E-04  0  0.1664E-04  0  0.1134E-04  0 -0.9010E-05  0 -0.7165E-05
   (  4, 35, 35)  (  4, 35, 35)  (  4, 35, 35)  (  4, 34, 35)  (  4, 34, 35)
  0 -0.5484E-05  0 -0.4823E-05  0 -0.3895E-05  0 -0.3018E-05  0 -0.2325E-05
   (  4, 34, 35)  (  4, 34, 35)  (  4, 34, 35)  (  4, 34, 35)  (  4, 34, 35)
  0 -0.1861E-05  0 -0.1602E-05  0 -0.1308E-05  0 -0.9488E-06  0 -0.7110E-06
   (  4, 34, 35)  (  4, 34, 35)  (  4, 34, 35)  (  4, 34, 35)  (  4, 34, 35)
  0 -0.5013E-06  0 -0.3849E-06  0 -0.2954E-06  0 -0.1927E-06  0 -0.1514E-06
   (  4, 34, 35)  (  4, 34, 35)  (  4, 34, 35)  (  4, 34, 35)  (  4, 34, 35)
  1 -0.2425E-06  0 -0.1902E-06  0 -0.1439E-06  0 -0.8764E-07  0 -0.5770E-07
   (  3, 25,  8)  (  3, 25,  8)  (  3, 25,  8)  (  3, 25,  8)  (  3, 25,  8)
  0 -0.3134E-07  0  0.2486E-07  0  0.2156E-07  0  0.1903E-07  0  0.1649E-07
   (  4, 34, 35)  (  4, 43,  5)  (  4, 43,  5)  (  4, 35, 35)  (  4, 43,  2)
  0  0.1385E-07  0  0.1173E-07  0  0.8386E-08  0  0.5423E-08  1  0.4750E-08
   (  4, 43,  2)  (  4, 43,  2)  (  4, 43,  2)  (  4, 43,  2)  (  4, 43,  2)



 OUTPUT CONTROL FOR STRESS PERIOD   19   TIME STEP    1
    SAVE HEAD FOR ALL LAYERS
    SAVE DRAWDOWN FOR ALL LAYERS
    SAVE BUDGET
    PRINT BUDGET
 UBDSV1 SAVING "         STORAGE" ON UNIT   9 AT TIME STEP  1, STRESS PERIOD  19
 UBDSV2 SAVING "   CONSTANT HEAD" ON UNIT   9 AT TIME STEP  1, STRESS PERIOD  19
 UBDSV1 SAVING "FLOW RIGHT FACE " ON UNIT   9 AT TIME STEP  1, STRESS PERIOD  19
 UBDSV1 SAVING "FLOW FRONT FACE " ON UNIT   9 AT TIME STEP  1, STRESS PERIOD  19
 UBDSV1 SAVING "FLOW LOWER FACE " ON UNIT   9 AT TIME STEP  1, STRESS PERIOD  19
 UBDSV3 SAVING "        RECHARGE" ON UNIT   9 AT TIME STEP  1, STRESS PERIOD  19

 HEAD WILL BE SAVED ON UNIT   37 AT END OF TIME STEP    1, STRESS PERIOD   19

 DRAWDOWN WILL BE SAVED ON UNIT   38 AT END OF TIME STEP    1, STRESS PERIOD   19
1
  VOLUMETRIC BUDGET FOR ENTIRE MODEL AT END OF TIME STEP    1, STRESS PERIOD  19
  ------------------------------------------------------------------------------

     CUMULATIVE VOLUMES      L**3       RATES FOR THIS TIME STEP      L**3/T
     ------------------                 ------------------------

           IN:                                      IN:
           ---                                      ---
             STORAGE =        6233.9502               STORAGE =       5.0333E-05
       CONSTANT HEAD =        4785.3315         CONSTANT HEAD =       2.2672E-03
            RECHARGE =         229.4224              RECHARGE =       1.0213E-04

            TOTAL IN =       11248.7041              TOTAL IN =       2.4197E-03

          OUT:                                     OUT:
          ----                                     ----
             STORAGE =         665.9415               STORAGE =       4.2505E-04
       CONSTANT HEAD =       10583.0273         CONSTANT HEAD =       1.9947E-03
            RECHARGE =           0.0000              RECHARGE =           0.0000

           TOTAL OUT =       11248.9688             TOTAL OUT =       2.4198E-03

            IN - OUT =          -0.2646              IN - OUT =      -1.0477E-07

 PERCENT DISCREPANCY =          -0.00     PERCENT DISCREPANCY =          -0.00






         TIME SUMMARY AT END OF TIME STEP    1 IN STRESS PERIOD   19
                    SECONDS     MINUTES      HOURS       DAYS        YEARS
                    -----------------------------------------------------------
   TIME STEP LENGTH  86400.      1440.0      24.000      1.0000     2.73785E-03
 STRESS PERIOD TIME  86400.      1440.0      24.000      1.0000     2.73785E-03
         TOTAL TIME 2.24640E+06  37440.      624.00      26.000     7.11841E-02
1

 SOLVING FOR HEAD 
     3 CALLS TO PCG ROUTINE FOR TIME STEP   2 IN STRESS PERIOD   19
    44 TOTAL ITERATIONS

 MAXIMUM HEAD CHANGE FOR EACH ITERATION (1 INDICATES THE FIRST INNER ITERATION):

    HEAD CHANGE    HEAD CHANGE    HEAD CHANGE    HEAD CHANGE    HEAD CHANGE 
   LAYER,ROW,COL  LAYER,ROW,COL  LAYER,ROW,COL  LAYER,ROW,COL  LAYER,ROW,COL
 ---------------------------------------------------------------------------
  1 -0.4462E-01  0  0.1822E-01  0  0.1806E-01  0 -0.2346E-01  0  0.1615E-01
   (  5, 43,  5)  (  5, 40,  1)  (  5, 41,  1)  (  5, 38,  1)  (  5, 34,  1)
  0 -0.9381E-02  0 -0.7396E-02  0  0.4333E-02  0 -0.4650E-02  0  0.3297E-02
   (  5, 32,  2)  (  5, 41,  5)  (  5, 40,  1)  (  5, 37,  1)  (  5, 40,  5)
  0 -0.2705E-02  0  0.1665E-02  0  0.1305E-02  0 -0.1102E-02  0  0.8087E-03
   (  5, 39,  1)  (  5, 42,  1)  (  5, 36,  5)  (  5, 37,  8)  (  5, 35,  8)
  0 -0.5969E-03  0  0.4713E-03  0 -0.3169E-03  0 -0.3443E-03  0 -0.1918E-03
   (  5, 14,  1)  (  5, 34,  1)  (  5, 30,  1)  (  5, 13,  1)  (  5, 39,  1)
  0  0.1327E-03  0 -0.1185E-03  0  0.9727E-04  0 -0.7871E-04  0 -0.4710E-04
   (  5, 28,  9)  (  5, 35,  1)  (  5, 36,  3)  (  5, 36,  1)  (  5, 12,  2)
  0 -0.4238E-04  0  0.2809E-04  0 -0.2147E-04  0  0.1295E-04  0 -0.9962E-05
   (  5, 37,  1)  (  5, 38,  4)  (  5, 34,  6)  (  5, 36,  1)  (  5, 34,  1)
  1  0.1119E-04  0 -0.1291E-04  0  0.1721E-04  0  0.2035E-04  0  0.8208E-05
   (  5, 35,  2)  (  5, 33,  3)  (  5, 31,  1)  (  5, 38,  1)  (  5, 27,  3)
  0  0.8288E-05  0 -0.5262E-05  0 -0.3486E-05  0  0.4173E-05  0  0.2304E-05
   (  5, 36,  5)  (  5, 34,  6)  (  5, 38,  2)  (  5, 35,  1)  (  5, 40,  2)
  0  0.1670E-05  0  0.1269E-05  0  0.8776E-06  1  0.6303E-06
   (  5, 31,  9)  (  5, 15,  1)  (  5, 32,  1)  (  5, 27,  8)

 MAXIMUM RESIDUAL FOR EACH ITERATION (1 INDICATES THE FIRST INNER ITERATION):

    RESIDUAL       RESIDUAL       RESIDUAL       RESIDUAL       RESIDUAL    
   LAYER,ROW,COL  LAYER,ROW,COL  LAYER,ROW,COL  LAYER,ROW,COL  LAYER,ROW,COL
 ---------------------------------------------------------------------------
  1  0.2096E-03  0  0.1536E-03  0  0.1195E-03  0  0.9820E-04  0  0.8347E-04
   (  4, 44,  2)  (  4, 44,  2)  (  4, 35, 35)  (  3, 40, 27)  (  3, 40, 27)
  0  0.6871E-04  0  0.5262E-04  0  0.4328E-04  0  0.3465E-04  0  0.2520E-04
   (  3, 40, 27)  (  3, 40, 27)  (  4, 35, 35)  (  4, 35, 35)  (  4, 35, 35)
  0 -0.1851E-04  0 -0.1401E-04  0 -0.1025E-04  0 -0.8131E-05  0 -0.6471E-05
   (  3, 35, 35)  (  3, 35, 35)  (  4, 34, 35)  (  4, 34, 35)  (  4, 34, 35)
  0 -0.4988E-05  0 -0.4294E-05  0 -0.3690E-05  0 -0.2913E-05  0 -0.2223E-05
   (  4, 34, 35)  (  4, 34, 35)  (  4, 34, 35)  (  4, 34, 35)  (  4, 34, 35)
  0 -0.1750E-05  0 -0.1430E-05  0 -0.1184E-05  0 -0.8378E-06  0 -0.6011E-06
   (  4, 34, 35)  (  4, 34, 35)  (  4, 34, 35)  (  4, 34, 35)  (  4, 34, 35)
  0 -0.4850E-06  0 -0.3685E-06  0 -0.2524E-06  0  0.1780E-06  0  0.1286E-06
   (  4, 34, 35)  (  4, 34, 35)  (  4, 34, 35)  (  4, 35, 35)  (  4, 35, 35)
  1 -0.2877E-06  0 -0.2307E-06  0 -0.1656E-06  0 -0.9525E-07  0 -0.6665E-07
   (  3, 38,  5)  (  3, 38,  5)  (  3, 38,  5)  (  3, 38,  5)  (  3, 38,  5)
  0  0.3619E-07  0  0.2953E-07  0  0.2508E-07  0  0.1979E-07  0  0.1669E-07
   (  4, 35, 35)  (  4, 35, 35)  (  4, 35, 35)  (  4, 43,  2)  (  4, 43,  2)
  0  0.1418E-07  0  0.1096E-07  0  0.8198E-08  1  0.7494E-08
   (  4, 43,  2)  (  4, 43,  2)  (  4, 43,  2)  (  4, 43,  2)



 OUTPUT CONTROL FOR STRESS PERIOD   19   TIME STEP    2
    SAVE HEAD FOR ALL LAYERS
    SAVE DRAWDOWN FOR ALL LAYERS
    SAVE BUDGET
    PRINT BUDGET
 UBDSV1 SAVING "         STORAGE" ON UNIT   9 AT TIME STEP  2, STRESS PERIOD  19
 UBDSV2 SAVING "   CONSTANT HEAD" ON UNIT   9 AT TIME STEP  2, STRESS PERIOD  19
 UBDSV1 SAVING "FLOW RIGHT FACE " ON UNIT   9 AT TIME STEP  2, STRESS PERIOD  19
 UBDSV1 SAVING "FLOW FRONT FACE " ON UNIT   9 AT TIME STEP  2, STRESS PERIOD  19
 UBDSV1 SAVING "FLOW LOWER FACE " ON UNIT   9 AT TIME STEP  2, STRESS PERIOD  19
 UBDSV3 SAVING "        RECHARGE" ON UNIT   9 AT TIME STEP  2, STRESS PERIOD  19

 HEAD WILL BE SAVED ON UNIT   37 AT END OF TIME STEP    2, STRESS PERIOD   19

 DRAWDOWN WILL BE SAVED ON UNIT   38 AT END OF TIME STEP    2, STRESS PERIOD   19
1
  VOLUMETRIC BUDGET FOR ENTIRE MODEL AT END OF TIME STEP    2, STRESS PERIOD  19
  ------------------------------------------------------------------------------

     CUMULATIVE VOLUMES      L**3       RATES FOR THIS TIME STEP      L**3/T
     ------------------                 ------------------------

           IN:                                      IN:
           ---                                      ---
             STORAGE =        6251.0522               STORAGE =       1.9794E-04
       CONSTANT HEAD =        4972.8721         CONSTANT HEAD =       2.1706E-03
            RECHARGE =         238.2464              RECHARGE =       1.0213E-04

            TOTAL IN =       11462.1699              TOTAL IN =       2.4707E-03

          OUT:                                     OUT:
          ----                                     ----
             STORAGE =         666.4644               STORAGE =       6.0514E-06
       CONSTANT HEAD =       10795.9795         CONSTANT HEAD =       2.4647E-03
            RECHARGE =           0.0000              RECHARGE =           0.0000

           TOTAL OUT =       11462.4434             TOTAL OUT =       2.4708E-03

            IN - OUT =          -0.2734              IN - OUT =      -1.0198E-07

 PERCENT DISCREPANCY =          -0.00     PERCENT DISCREPANCY =          -0.00






         TIME SUMMARY AT END OF TIME STEP    2 IN STRESS PERIOD   19
                    SECONDS     MINUTES      HOURS       DAYS        YEARS
                    -----------------------------------------------------------
   TIME STEP LENGTH  86400.      1440.0      24.000      1.0000     2.73785E-03
 STRESS PERIOD TIME 1.72800E+05  2880.0      48.000      2.0000     5.47570E-03
         TOTAL TIME 2.33280E+06  38880.      648.00      27.000     7.39220E-02
1

 SOLVING FOR HEAD 
     3 CALLS TO PCG ROUTINE FOR TIME STEP   3 IN STRESS PERIOD   19
    46 TOTAL ITERATIONS

 MAXIMUM HEAD CHANGE FOR EACH ITERATION (1 INDICATES THE FIRST INNER ITERATION):

    HEAD CHANGE    HEAD CHANGE    HEAD CHANGE    HEAD CHANGE    HEAD CHANGE 
   LAYER,ROW,COL  LAYER,ROW,COL  LAYER,ROW,COL  LAYER,ROW,COL  LAYER,ROW,COL
 ---------------------------------------------------------------------------
  1 -0.4973E-01  0  0.2497E-01  0  0.1767E-01  0 -0.2091E-01  0  0.1595E-01
   (  5, 43,  5)  (  5, 39,  1)  (  5, 42,  1)  (  5, 38,  1)  (  5, 35,  1)
  0 -0.1061E-01  0 -0.6859E-02  0  0.4374E-02  0 -0.4605E-02  0  0.3461E-02
   (  5, 32,  2)  (  5, 41,  5)  (  5, 40,  1)  (  5, 37,  1)  (  5, 40,  5)
  0 -0.2598E-02  0  0.1706E-02  0 -0.1392E-02  0  0.9923E-03  0  0.8704E-03
   (  5, 39,  1)  (  5, 37,  1)  (  5, 40,  1)  (  5, 42,  5)  (  5, 35,  8)
  0 -0.6144E-03  0  0.4409E-03  0 -0.2989E-03  0  0.2388E-03  0 -0.1807E-03
   (  5, 14,  1)  (  5, 13,  1)  (  5, 32,  1)  (  5, 36,  1)  (  5, 30,  9)
  0 -0.1524E-03  0  0.1232E-03  0 -0.1030E-03  0  0.7338E-04  0 -0.4583E-04
   (  5, 38,  4)  (  5, 37,  1)  (  5, 40,  1)  (  5, 12,  1)  (  5, 12,  2)
  0 -0.4279E-04  0  0.2627E-04  0  0.1692E-04  0 -0.1680E-04  0  0.1065E-04
   (  5, 37,  1)  (  5, 38,  4)  (  5, 40,  1)  (  5, 35,  6)  (  5, 33,  6)
  1  0.1888E-04  0 -0.1898E-04  0  0.2796E-04  0  0.1735E-04  0  0.8065E-05
   (  5, 38,  1)  (  5, 36,  1)  (  5, 31,  1)  (  5, 38,  1)  (  5, 28,  8)
  0  0.8283E-05  0 -0.5927E-05  0 -0.6677E-05  0  0.3407E-05  0  0.2633E-05
   (  5, 36,  1)  (  5, 34,  6)  (  5, 38,  1)  (  5, 40,  2)  (  5, 30,  4)
  0  0.2019E-05  0  0.2161E-05  0 -0.1678E-05  0  0.1229E-05  0  0.9167E-06
   (  5, 23,  1)  (  5, 32, 10)  (  5, 40,  1)  (  5, 41,  1)  (  5, 13,  1)
  1 -0.5354E-06
   (  5, 31,  1)

 MAXIMUM RESIDUAL FOR EACH ITERATION (1 INDICATES THE FIRST INNER ITERATION):

    RESIDUAL       RESIDUAL       RESIDUAL       RESIDUAL       RESIDUAL    
   LAYER,ROW,COL  LAYER,ROW,COL  LAYER,ROW,COL  LAYER,ROW,COL  LAYER,ROW,COL
 ---------------------------------------------------------------------------
  1  0.1860E-03  0  0.1447E-03  0  0.1177E-03  0  0.9470E-04  0  0.8156E-04
   (  4, 44,  2)  (  4, 35, 35)  (  4, 35, 35)  (  3, 40, 27)  (  3, 40, 27)
  0  0.6659E-04  0  0.5148E-04  0  0.4119E-04  0  0.3090E-04  0 -0.2417E-04
   (  3, 40, 27)  (  3, 40, 27)  (  3, 40, 27)  (  3, 40, 27)  (  3, 35, 35)
  0 -0.1885E-04  0 -0.1388E-04  0 -0.9571E-05  0 -0.7615E-05  0 -0.6202E-05
   (  3, 35, 35)  (  3, 35, 35)  (  4, 43,  4)  (  4, 34, 35)  (  4, 34, 35)
  0 -0.4831E-05  0 -0.3851E-05  0 -0.3191E-05  0 -0.2813E-05  0 -0.2128E-05
   (  4, 34, 35)  (  4, 34, 35)  (  4, 34, 35)  (  4, 34, 35)  (  4, 34, 35)
  0 -0.1723E-05  0 -0.1448E-05  0 -0.1104E-05  0 -0.7875E-06  0 -0.5688E-06
   (  4, 34, 35)  (  4, 34, 35)  (  4, 34, 35)  (  4, 34, 35)  (  4, 34, 35)
  0 -0.4801E-06  0 -0.3366E-06  0  0.2454E-06  0  0.1783E-06  0  0.1254E-06
   (  4, 34, 35)  (  4, 34, 35)  (  4, 35, 35)  (  4, 35, 35)  (  4, 35, 35)
  1 -0.3033E-06  0 -0.2347E-06  0 -0.1738E-06  0 -0.9942E-07  0 -0.6317E-07
   (  3, 34,  6)  (  3, 34,  6)  (  3, 34,  6)  (  3, 34,  6)  (  3, 34,  6)
  0 -0.4194E-07  0  0.2575E-07  0  0.2330E-07  0  0.2048E-07  0  0.1818E-07
   (  3, 34,  6)  (  4, 35, 35)  (  4, 43,  2)  (  4, 43,  2)  (  4, 43,  2)
  0  0.1580E-07  0  0.1263E-07  0  0.9446E-08  0  0.6040E-08  0  0.3715E-08
   (  4, 43,  2)  (  4, 43,  2)  (  4, 43,  2)  (  4, 43,  2)  (  4, 43,  2)
  1  0.3533E-08
   (  4, 43,  2)



 OUTPUT CONTROL FOR STRESS PERIOD   19   TIME STEP    3
    SAVE HEAD FOR ALL LAYERS
    SAVE DRAWDOWN FOR ALL LAYERS
    SAVE BUDGET
    PRINT BUDGET
 UBDSV1 SAVING "         STORAGE" ON UNIT   9 AT TIME STEP  3, STRESS PERIOD  19
 UBDSV2 SAVING "   CONSTANT HEAD" ON UNIT   9 AT TIME STEP  3, STRESS PERIOD  19
 UBDSV1 SAVING "FLOW RIGHT FACE " ON UNIT   9 AT TIME STEP  3, STRESS PERIOD  19
 UBDSV1 SAVING "FLOW FRONT FACE " ON UNIT   9 AT TIME STEP  3, STRESS PERIOD  19
 UBDSV1 SAVING "FLOW LOWER FACE " ON UNIT   9 AT TIME STEP  3, STRESS PERIOD  19
 UBDSV3 SAVING "        RECHARGE" ON UNIT   9 AT TIME STEP  3, STRESS PERIOD  19

 HEAD WILL BE SAVED ON UNIT   37 AT END OF TIME STEP    3, STRESS PERIOD   19

 DRAWDOWN WILL BE SAVED ON UNIT   38 AT END OF TIME STEP    3, STRESS PERIOD   19
1
  VOLUMETRIC BUDGET FOR ENTIRE MODEL AT END OF TIME STEP    3, STRESS PERIOD  19
  ------------------------------------------------------------------------------

     CUMULATIVE VOLUMES      L**3       RATES FOR THIS TIME STEP      L**3/T
     ------------------                 ------------------------

           IN:                                      IN:
           ---                                      ---
             STORAGE =        6283.9795               STORAGE =       3.8110E-04
       CONSTANT HEAD =        5165.8877         CONSTANT HEAD =       2.2340E-03
            RECHARGE =         247.0703              RECHARGE =       1.0213E-04

            TOTAL IN =       11696.9375              TOTAL IN =       2.7172E-03

          OUT:                                     OUT:
          ----                                     ----
             STORAGE =         666.4644               STORAGE =           0.0000
       CONSTANT HEAD =       11030.7549         CONSTANT HEAD =       2.7173E-03
            RECHARGE =           0.0000              RECHARGE =           0.0000

           TOTAL OUT =       11697.2188             TOTAL OUT =       2.7173E-03

            IN - OUT =          -0.2812              IN - OUT =      -1.0221E-07

 PERCENT DISCREPANCY =          -0.00     PERCENT DISCREPANCY =          -0.00






         TIME SUMMARY AT END OF TIME STEP    3 IN STRESS PERIOD   19
                    SECONDS     MINUTES      HOURS       DAYS        YEARS
                    -----------------------------------------------------------
   TIME STEP LENGTH  86400.      1440.0      24.000      1.0000     2.73785E-03
 STRESS PERIOD TIME 2.59200E+05  4320.0      72.000      3.0000     8.21355E-03
         TOTAL TIME 2.41920E+06  40320.      672.00      28.000     7.66598E-02
1
1
                            STRESS PERIOD NO.   20, LENGTH =   86400.00    
                            -----------------------------------------------

                              NUMBER OF TIME STEPS =     1

                               MULTIPLIER FOR DELT =     1.000

                            INITIAL TIME STEP SIZE =   86400.00    

 REUSING RECH FROM LAST STRESS PERIOD

 CHD NO.   LAYER   ROW   COL    START HEAD        END HEAD         IFACE           
 ----------------------------------------------------------------------------------
      1      4      3      1       109.4           109.4           0.000    
      2      5      3      1       109.4           109.4           0.000    
      3      4      3      2       109.4           109.4           0.000    
      4      5      3      2       109.4           109.4           0.000    
      5      4      3      3       109.4           109.4           0.000    
      6      5      3      3       109.4           109.4           0.000    
      7      4      3      4       109.4           109.4           0.000    
      8      5      3      4       109.4           109.4           0.000    
      9      4      3      5       109.4           109.4           0.000    
     10      5      3      5       109.4           109.4           0.000    
     11      4      3      6       109.4           109.4           0.000    
     12      5      3      6       109.4           109.4           0.000    
     13      4      3      7       109.4           109.4           0.000    
     14      5      3      7       109.4           109.4           0.000    
     15      4      3      8       109.4           109.4           0.000    
     16      5      3      8       109.4           109.4           0.000    
     17      4      2      8       109.4           109.4           0.000    
     18      5      2      8       109.4           109.4           0.000    
     19      4      2      9       109.4           109.4           0.000    
     20      5      2      9       109.4           109.4           0.000    
     21      4      2     10       109.4           109.4           0.000    
     22      5      2     10       109.4           109.4           0.000    
     23      4      2     11       109.4           109.4           0.000    
     24      5      2     11       109.4           109.4           0.000    
     25      4      2     12       109.4           109.4           0.000    
     26      5      2     12       109.4           109.4           0.000    
     27      4      2     13       109.4           109.4           0.000    
     28      5      2     13       109.4           109.4           0.000    
     29      4      2     14       109.4           109.4           0.000    
     30      5      2     14       109.4           109.4           0.000    
     31      4      2     15       109.4           109.4           0.000    
     32      5      2     15       109.4           109.4           0.000    
     33      4      2     16       109.4           109.4           0.000    
     34      5      2     16       109.4           109.4           0.000    
     35      4      2     17       109.4           109.4           0.000    
     36      5      2     17       109.4           109.4           0.000    
     37      4      2     18       109.4           109.4           0.000    
     38      5      2     18       109.4           109.4           0.000    
     39      4      2     19       109.4           109.4           0.000    
     40      5      2     19       109.4           109.4           0.000    
     41      4      2     20       109.4           109.4           0.000    
     42      5      2     20       109.4           109.4           0.000    
     43      4      2     21       109.4           109.4           0.000    
     44      5      2     21       109.4           109.4           0.000    
     45      4      2     22       109.4           109.4           0.000    
     46      5      2     22       109.4           109.4           0.000    
     47      4      2     23       109.4           109.4           0.000    
     48      5      2     23       109.4           109.4           0.000    
     49      4      2     24       109.4           109.4           0.000    
     50      5      2     24       109.4           109.4           0.000    
     51      4      2     25       109.4           109.4           0.000    
     52      5      2     25       109.4           109.4           0.000    
     53      4      2     26       109.4           109.4           0.000    
     54      5      2     26       109.4           109.4           0.000    
     55      4      1     26       109.4           109.4           0.000    
     56      5      1     26       109.4           109.4           0.000    
     57      4      1     27       109.4           109.4           0.000    
     58      5      1     27       109.4           109.4           0.000    
     59      4      1     28       109.4           109.4           0.000    
     60      5      1     28       109.4           109.4           0.000    
     61      4      1     29       109.4           109.4           0.000    
     62      5      1     29       109.4           109.4           0.000    
     63      4      1     30       109.4           109.4           0.000    
     64      5      1     30       109.4           109.4           0.000    
     65      4      1     31       109.4           109.4           0.000    
     66      5      1     31       109.4           109.4           0.000    
     67      4      1     32       109.4           109.4           0.000    
     68      5      1     32       109.4           109.4           0.000    
     69      4      1     33       109.4           109.4           0.000    
     70      5      1     33       109.4           109.4           0.000    
     71      4      1     34       109.4           109.4           0.000    
     72      5      1     34       109.4           109.4           0.000    
     73      4      1     35       109.4           109.4           0.000    
     74      5      1     35       109.4           109.4           0.000    
     75      4     36     35       109.2           109.2           0.000    
     76      5     36     35       109.2           109.2           0.000    
     77      4     35     34       109.2           109.2           0.000    
     78      5     35     34       109.2           109.2           0.000    
     79      4     36     34       109.2           109.2           0.000    
     80      5     36     34       109.2           109.2           0.000    
     81      4     36     33       109.2           109.2           0.000    
     82      5     36     33       109.2           109.2           0.000    
     83      4     36     32       109.2           109.2           0.000    
     84      5     36     32       109.2           109.2           0.000    
     85      4     37     32       109.2           109.2           0.000    
     86      5     37     32       109.2           109.2           0.000    
     87      4     37     31       109.2           109.2           0.000    
     88      5     37     31       109.2           109.2           0.000    
     89      4     38     31       109.2           109.2           0.000    
     90      5     38     31       109.2           109.2           0.000    
     91      4     38     30       109.2           109.2           0.000    
     92      5     38     30       109.2           109.2           0.000    
     93      4     39     30       109.2           109.2           0.000    
     94      5     39     30       109.2           109.2           0.000    
     95      4     39     29       109.2           109.2           0.000    
     96      5     39     29       109.2           109.2           0.000    
     97      4     40     29       109.2           109.2           0.000    
     98      5     40     29       109.2           109.2           0.000    
     99      4     40     28       109.2           109.2           0.000    
    100      5     40     28       109.2           109.2           0.000    
    101      4     40     27       109.2           109.2           0.000    
    102      5     40     27       109.2           109.2           0.000    
    103      4     41     27       109.2           109.2           0.000    
    104      5     41     27       109.2           109.2           0.000    
    105      4     41     26       109.2           109.2           0.000    
    106      5     41     26       109.2           109.2           0.000    
    107      4     41     25       109.2           109.2           0.000    
    108      5     41     25       109.2           109.2           0.000    
    109      4     41     24       109.2           109.2           0.000    
    110      5     41     24       109.2           109.2           0.000    
    111      4     41     23       109.2           109.2           0.000    
    112      5     41     23       109.2           109.2           0.000    
    113      4     41     22       109.2           109.2           0.000    
    114      5     41     22       109.2           109.2           0.000    
    115      4     42     22       109.2           109.2           0.000    
    116      5     42     22       109.2           109.2           0.000    
    117      4     42     21       109.2           109.2           0.000    
    118      5     42     21       109.2           109.2           0.000    
    119      4     42     20       109.2           109.2           0.000    
    120      5     42     20       109.2           109.2           0.000    
    121      4     42     19       109.2           109.2           0.000    
    122      5     42     19       109.2           109.2           0.000    
    123      4     43     18       109.2           109.2           0.000    
    124      5     43     18       109.2           109.2           0.000    
    125      4     42     18       109.2           109.2           0.000    
    126      5     42     18       109.2           109.2           0.000    
    127      4     42     17       109.2           109.2           0.000    
    128      5     42     17       109.2           109.2           0.000    
    129      4     42     16       109.2           109.2           0.000    
    130      5     42     16       109.2           109.2           0.000    
    131      4     42     15       109.2           109.2           0.000    
    132      5     42     15       109.2           109.2           0.000    
    133      4     43     15       109.2           109.2           0.000    
    134      5     43     15       109.2           109.2           0.000    
    135      4     43     14       109.2           109.2           0.000    
    136      5     43     14       109.2           109.2           0.000    
    137      4     43     13       109.2           109.2           0.000    
    138      5     43     13       109.2           109.2           0.000    
    139      4     43     12       109.2           109.2           0.000    
    140      5     43     12       109.2           109.2           0.000    
    141      4     43     11       109.2           109.2           0.000    
    142      5     43     11       109.2           109.2           0.000    
    143      4     43     10       109.2           109.2           0.000    
    144      5     43     10       109.2           109.2           0.000    
    145      4     44     10       109.2           109.2           0.000    
    146      5     44     10       109.2           109.2           0.000    
    147      4     44      9       109.2           109.2           0.000    
    148      5     44      9       109.2           109.2           0.000    
    149      4     44      8       109.2           109.2           0.000    
    150      5     44      8       109.2           109.2           0.000    
    151      4     44      7       109.2           109.2           0.000    
    152      5     44      7       109.2           109.2           0.000    
    153      4     44      6       109.2           109.2           0.000    
    154      5     44      6       109.2           109.2           0.000    
    155      4     44      5       109.2           109.2           0.000    
    156      5     44      5       109.2           109.2           0.000    
    157      4     44      4       109.2           109.2           0.000    
    158      5     44      4       109.2           109.2           0.000    
    159      4     44      3       109.2           109.2           0.000    
    160      5     44      3       109.2           109.2           0.000    
    161      4     45      3       109.2           109.2           0.000    
    162      5     45      3       109.2           109.2           0.000    
    163      4     45      2       109.2           109.2           0.000    
    164      5     45      2       109.2           109.2           0.000    
    165      4     45      1       109.2           109.2           0.000    
    166      5     45      1       109.2           109.2           0.000    


    166 TIME-VARIANT SPECIFIED-HEAD CELLS

 SOLVING FOR HEAD 


     3 CALLS TO PCG ROUTINE FOR TIME STEP   1 IN STRESS PERIOD   20
    43 TOTAL ITERATIONS

 MAXIMUM HEAD CHANGE FOR EACH ITERATION (1 INDICATES THE FIRST INNER ITERATION):

    HEAD CHANGE    HEAD CHANGE    HEAD CHANGE    HEAD CHANGE    HEAD CHANGE 
   LAYER,ROW,COL  LAYER,ROW,COL  LAYER,ROW,COL  LAYER,ROW,COL  LAYER,ROW,COL
 ---------------------------------------------------------------------------
  1  0.4035E-01  0  0.1522E-01  0 -0.1719E-01  0  0.2129E-01  0 -0.1373E-01
   (  5, 43,  5)  (  5, 29,  1)  (  5, 41,  1)  (  5, 38,  1)  (  5, 35,  1)
  0  0.8206E-02  0  0.5521E-02  0  0.3472E-02  0  0.3402E-02  0 -0.2715E-02
   (  5, 33,  2)  (  5, 41,  5)  (  5, 31,  5)  (  5, 37,  1)  (  5, 40,  5)
  0  0.2301E-02  0 -0.1481E-02  0 -0.1162E-02  0  0.9445E-03  0 -0.5975E-03
   (  5, 39,  1)  (  5, 42,  1)  (  5, 36,  5)  (  5, 37,  8)  (  5, 35,  8)
  0  0.5669E-03  0 -0.3998E-03  0 -0.2512E-03  0  0.2563E-03  0 -0.1838E-03
   (  5, 14,  1)  (  5, 13,  1)  (  5, 31,  2)  (  5, 13,  1)  (  5, 12,  1)
  0  0.1328E-03  0 -0.1250E-03  0  0.8629E-04  0 -0.5508E-04  0  0.3884E-04
   (  5, 34,  1)  (  5, 37,  1)  (  5, 40,  2)  (  5, 12,  1)  (  5, 12,  2)
  0 -0.3204E-04  0  0.3096E-04  0  0.1853E-04  0  0.1058E-04  0 -0.8798E-05
   (  5, 39,  2)  (  5, 37,  1)  (  5, 34,  6)  (  5, 35,  6)  (  5, 33,  6)
  1 -0.1048E-04  0  0.1815E-04  0 -0.1253E-04  0  0.1105E-04  0  0.5410E-05
   (  5, 38,  2)  (  5, 40,  2)  (  5, 31,  1)  (  5, 31,  1)  (  3, 44,  4)
  0 -0.6085E-05  0  0.3677E-05  0  0.2573E-05  0 -0.1937E-05  0  0.1746E-05
   (  5, 36,  1)  (  5, 38,  1)  (  5, 38,  1)  (  5, 18,  1)  (  5, 38,  1)
  0 -0.1357E-05  0 -0.9803E-06  1  0.7047E-06
   (  5, 26, 10)  (  5, 15,  1)  (  5, 39,  1)

 MAXIMUM RESIDUAL FOR EACH ITERATION (1 INDICATES THE FIRST INNER ITERATION):

    RESIDUAL       RESIDUAL       RESIDUAL       RESIDUAL       RESIDUAL    
   LAYER,ROW,COL  LAYER,ROW,COL  LAYER,ROW,COL  LAYER,ROW,COL  LAYER,ROW,COL
 ---------------------------------------------------------------------------
  1 -0.1676E-03  0 -0.1240E-03  0 -0.1012E-03  0 -0.8306E-04  0 -0.7059E-04
   (  4, 44,  2)  (  4, 44,  2)  (  4, 35, 35)  (  3, 40, 27)  (  3, 40, 27)
  0 -0.5813E-04  0 -0.4524E-04  0 -0.3622E-04  0 -0.2838E-04  0 -0.2164E-04
   (  3, 40, 27)  (  3, 40, 27)  (  3, 40, 27)  (  4, 35, 35)  (  4, 35, 35)
  0  0.1582E-04  0  0.1174E-04  0  0.8313E-05  0  0.6617E-05  0  0.5354E-05
   (  3, 35, 35)  (  3, 35, 35)  (  3, 35, 35)  (  4, 34, 35)  (  4, 34, 35)
  0  0.4229E-05  0  0.3358E-05  0  0.3020E-05  0  0.2460E-05  0  0.1903E-05
   (  4, 34, 35)  (  4, 34, 35)  (  4, 34, 35)  (  4, 34, 35)  (  4, 34, 35)
  0  0.1617E-05  0  0.1317E-05  0  0.9936E-06  0  0.7139E-06  0  0.5174E-06
   (  4, 34, 35)  (  4, 34, 35)  (  4, 34, 35)  (  4, 34, 35)  (  4, 34, 35)
  0  0.4043E-06  0  0.3168E-06  0  0.2169E-06  0 -0.1490E-06  0 -0.1053E-06
   (  4, 34, 35)  (  4, 34, 35)  (  4, 34, 35)  (  4, 35, 35)  (  4, 35, 35)
  1 -0.4459E-06  0 -0.3037E-06  0 -0.2048E-06  0 -0.1300E-06  0 -0.7136E-07
   (  3, 44,  4)  (  3, 44,  4)  (  3, 44,  4)  (  3, 44,  4)  (  3, 44,  4)
  0  0.4415E-07  0  0.4119E-07  0  0.3283E-07  0  0.2693E-07  0  0.2055E-07
   (  3, 44,  5)  (  3, 44,  5)  (  3, 44,  5)  (  3, 44,  5)  (  3, 44,  5)
  0  0.1275E-07  0 -0.9576E-08  1 -0.9250E-08
   (  3, 44,  5)  (  4, 44,  1)  (  4, 44,  1)



 OUTPUT CONTROL FOR STRESS PERIOD   20   TIME STEP    1
    SAVE HEAD FOR ALL LAYERS
    SAVE DRAWDOWN FOR ALL LAYERS
    SAVE BUDGET
    PRINT BUDGET
 UBDSV1 SAVING "         STORAGE" ON UNIT   9 AT TIME STEP  1, STRESS PERIOD  20
 UBDSV2 SAVING "   CONSTANT HEAD" ON UNIT   9 AT TIME STEP  1, STRESS PERIOD  20
 UBDSV1 SAVING "FLOW RIGHT FACE " ON UNIT   9 AT TIME STEP  1, STRESS PERIOD  20
 UBDSV1 SAVING "FLOW FRONT FACE " ON UNIT   9 AT TIME STEP  1, STRESS PERIOD  20
 UBDSV1 SAVING "FLOW LOWER FACE " ON UNIT   9 AT TIME STEP  1, STRESS PERIOD  20
 UBDSV3 SAVING "        RECHARGE" ON UNIT   9 AT TIME STEP  1, STRESS PERIOD  20

 HEAD WILL BE SAVED ON UNIT   37 AT END OF TIME STEP    1, STRESS PERIOD   20

 DRAWDOWN WILL BE SAVED ON UNIT   38 AT END OF TIME STEP    1, STRESS PERIOD   20
1
  VOLUMETRIC BUDGET FOR ENTIRE MODEL AT END OF TIME STEP    1, STRESS PERIOD  20
  ------------------------------------------------------------------------------

     CUMULATIVE VOLUMES      L**3       RATES FOR THIS TIME STEP      L**3/T
     ------------------                 ------------------------

           IN:                                      IN:
           ---                                      ---
             STORAGE =        6283.9912               STORAGE =       1.3737E-07
       CONSTANT HEAD =        5358.5962         CONSTANT HEAD =       2.2304E-03
            RECHARGE =         255.8943              RECHARGE =       1.0213E-04

            TOTAL IN =       11898.4824              TOTAL IN =       2.3327E-03

          OUT:                                     OUT:
          ----                                     ----
             STORAGE =         681.0461               STORAGE =       1.6877E-04
       CONSTANT HEAD =       11217.7285         CONSTANT HEAD =       2.1640E-03
            RECHARGE =           0.0000              RECHARGE =           0.0000

           TOTAL OUT =       11898.7744             TOTAL OUT =       2.3328E-03

            IN - OUT =          -0.2920              IN - OUT =      -1.2363E-07

 PERCENT DISCREPANCY =          -0.00     PERCENT DISCREPANCY =          -0.01






         TIME SUMMARY AT END OF TIME STEP    1 IN STRESS PERIOD   20
                    SECONDS     MINUTES      HOURS       DAYS        YEARS
                    -----------------------------------------------------------
   TIME STEP LENGTH  86400.      1440.0      24.000      1.0000     2.73785E-03
 STRESS PERIOD TIME  86400.      1440.0      24.000      1.0000     2.73785E-03
         TOTAL TIME 2.50560E+06  41760.      696.00      29.000     7.93977E-02
1
1
                            STRESS PERIOD NO.   21, LENGTH =   86400.00    
                            -----------------------------------------------

                              NUMBER OF TIME STEPS =     1

                               MULTIPLIER FOR DELT =     1.000

                            INITIAL TIME STEP SIZE =   86400.00    

 REUSING RECH FROM LAST STRESS PERIOD

 CHD NO.   LAYER   ROW   COL    START HEAD        END HEAD         IFACE           
 ----------------------------------------------------------------------------------
      1      4      3      1       109.4           109.4           0.000    
      2      5      3      1       109.4           109.4           0.000    
      3      4      3      2       109.4           109.4           0.000    
      4      5      3      2       109.4           109.4           0.000    
      5      4      3      3       109.4           109.4           0.000    
      6      5      3      3       109.4           109.4           0.000    
      7      4      3      4       109.4           109.4           0.000    
      8      5      3      4       109.4           109.4           0.000    
      9      4      3      5       109.4           109.4           0.000    
     10      5      3      5       109.4           109.4           0.000    
     11      4      3      6       109.4           109.4           0.000    
     12      5      3      6       109.4           109.4           0.000    
     13      4      3      7       109.4           109.4           0.000    
     14      5      3      7       109.4           109.4           0.000    
     15      4      3      8       109.4           109.4           0.000    
     16      5      3      8       109.4           109.4           0.000    
     17      4      2      8       109.4           109.4           0.000    
     18      5      2      8       109.4           109.4           0.000    
     19      4      2      9       109.4           109.4           0.000    
     20      5      2      9       109.4           109.4           0.000    
     21      4      2     10       109.4           109.4           0.000    
     22      5      2     10       109.4           109.4           0.000    
     23      4      2     11       109.4           109.4           0.000    
     24      5      2     11       109.4           109.4           0.000    
     25      4      2     12       109.4           109.4           0.000    
     26      5      2     12       109.4           109.4           0.000    
     27      4      2     13       109.4           109.4           0.000    
     28      5      2     13       109.4           109.4           0.000    
     29      4      2     14       109.4           109.4           0.000    
     30      5      2     14       109.4           109.4           0.000    
     31      4      2     15       109.4           109.4           0.000    
     32      5      2     15       109.4           109.4           0.000    
     33      4      2     16       109.4           109.4           0.000    
     34      5      2     16       109.4           109.4           0.000    
     35      4      2     17       109.4           109.4           0.000    
     36      5      2     17       109.4           109.4           0.000    
     37      4      2     18       109.4           109.4           0.000    
     38      5      2     18       109.4           109.4           0.000    
     39      4      2     19       109.4           109.4           0.000    
     40      5      2     19       109.4           109.4           0.000    
     41      4      2     20       109.4           109.4           0.000    
     42      5      2     20       109.4           109.4           0.000    
     43      4      2     21       109.4           109.4           0.000    
     44      5      2     21       109.4           109.4           0.000    
     45      4      2     22       109.4           109.4           0.000    
     46      5      2     22       109.4           109.4           0.000    
     47      4      2     23       109.4           109.4           0.000    
     48      5      2     23       109.4           109.4           0.000    
     49      4      2     24       109.4           109.4           0.000    
     50      5      2     24       109.4           109.4           0.000    
     51      4      2     25       109.4           109.4           0.000    
     52      5      2     25       109.4           109.4           0.000    
     53      4      2     26       109.4           109.4           0.000    
     54      5      2     26       109.4           109.4           0.000    
     55      4      1     26       109.4           109.4           0.000    
     56      5      1     26       109.4           109.4           0.000    
     57      4      1     27       109.4           109.4           0.000    
     58      5      1     27       109.4           109.4           0.000    
     59      4      1     28       109.4           109.4           0.000    
     60      5      1     28       109.4           109.4           0.000    
     61      4      1     29       109.4           109.4           0.000    
     62      5      1     29       109.4           109.4           0.000    
     63      4      1     30       109.4           109.4           0.000    
     64      5      1     30       109.4           109.4           0.000    
     65      4      1     31       109.4           109.4           0.000    
     66      5      1     31       109.4           109.4           0.000    
     67      4      1     32       109.4           109.4           0.000    
     68      5      1     32       109.4           109.4           0.000    
     69      4      1     33       109.4           109.4           0.000    
     70      5      1     33       109.4           109.4           0.000    
     71      4      1     34       109.4           109.4           0.000    
     72      5      1     34       109.4           109.4           0.000    
     73      4      1     35       109.4           109.4           0.000    
     74      5      1     35       109.4           109.4           0.000    
     75      4     36     35       109.2           109.2           0.000    
     76      5     36     35       109.2           109.2           0.000    
     77      4     35     34       109.2           109.2           0.000    
     78      5     35     34       109.2           109.2           0.000    
     79      4     36     34       109.2           109.2           0.000    
     80      5     36     34       109.2           109.2           0.000    
     81      4     36     33       109.2           109.2           0.000    
     82      5     36     33       109.2           109.2           0.000    
     83      4     36     32       109.2           109.2           0.000    
     84      5     36     32       109.2           109.2           0.000    
     85      4     37     32       109.2           109.2           0.000    
     86      5     37     32       109.2           109.2           0.000    
     87      4     37     31       109.2           109.2           0.000    
     88      5     37     31       109.2           109.2           0.000    
     89      4     38     31       109.2           109.2           0.000    
     90      5     38     31       109.2           109.2           0.000    
     91      4     38     30       109.2           109.2           0.000    
     92      5     38     30       109.2           109.2           0.000    
     93      4     39     30       109.2           109.2           0.000    
     94      5     39     30       109.2           109.2           0.000    
     95      4     39     29       109.2           109.2           0.000    
     96      5     39     29       109.2           109.2           0.000    
     97      4     40     29       109.2           109.2           0.000    
     98      5     40     29       109.2           109.2           0.000    
     99      4     40     28       109.2           109.2           0.000    
    100      5     40     28       109.2           109.2           0.000    
    101      4     40     27       109.2           109.2           0.000    
    102      5     40     27       109.2           109.2           0.000    
    103      4     41     27       109.2           109.2           0.000    
    104      5     41     27       109.2           109.2           0.000    
    105      4     41     26       109.2           109.2           0.000    
    106      5     41     26       109.2           109.2           0.000    
    107      4     41     25       109.2           109.2           0.000    
    108      5     41     25       109.2           109.2           0.000    
    109      4     41     24       109.2           109.2           0.000    
    110      5     41     24       109.2           109.2           0.000    
    111      4     41     23       109.2           109.2           0.000    
    112      5     41     23       109.2           109.2           0.000    
    113      4     41     22       109.2           109.2           0.000    
    114      5     41     22       109.2           109.2           0.000    
    115      4     42     22       109.2           109.2           0.000    
    116      5     42     22       109.2           109.2           0.000    
    117      4     42     21       109.2           109.2           0.000    
    118      5     42     21       109.2           109.2           0.000    
    119      4     42     20       109.2           109.2           0.000    
    120      5     42     20       109.2           109.2           0.000    
    121      4     42     19       109.2           109.2           0.000    
    122      5     42     19       109.2           109.2           0.000    
    123      4     43     18       109.2           109.2           0.000    
    124      5     43     18       109.2           109.2           0.000    
    125      4     42     18       109.2           109.2           0.000    
    126      5     42     18       109.2           109.2           0.000    
    127      4     42     17       109.2           109.2           0.000    
    128      5     42     17       109.2           109.2           0.000    
    129      4     42     16       109.2           109.2           0.000    
    130      5     42     16       109.2           109.2           0.000    
    131      4     42     15       109.2           109.2           0.000    
    132      5     42     15       109.2           109.2           0.000    
    133      4     43     15       109.2           109.2           0.000    
    134      5     43     15       109.2           109.2           0.000    
    135      4     43     14       109.2           109.2           0.000    
    136      5     43     14       109.2           109.2           0.000    
    137      4     43     13       109.2           109.2           0.000    
    138      5     43     13       109.2           109.2           0.000    
    139      4     43     12       109.2           109.2           0.000    
    140      5     43     12       109.2           109.2           0.000    
    141      4     43     11       109.2           109.1           0.000    
    142      5     43     11       109.2           109.1           0.000    
    143      4     43     10       109.2           109.1           0.000    
    144      5     43     10       109.2           109.1           0.000    
    145      4     44     10       109.2           109.1           0.000    
    146      5     44     10       109.2           109.1           0.000    
    147      4     44      9       109.2           109.1           0.000    
    148      5     44      9       109.2           109.1           0.000    
    149      4     44      8       109.2           109.1           0.000    
    150      5     44      8       109.2           109.1           0.000    
    151      4     44      7       109.2           109.1           0.000    
    152      5     44      7       109.2           109.1           0.000    
    153      4     44      6       109.2           109.1           0.000    
    154      5     44      6       109.2           109.1           0.000    
    155      4     44      5       109.2           109.1           0.000    
    156      5     44      5       109.2           109.1           0.000    
    157      4     44      4       109.2           109.1           0.000    
    158      5     44      4       109.2           109.1           0.000    
    159      4     44      3       109.2           109.1           0.000    
    160      5     44      3       109.2           109.1           0.000    
    161      4     45      3       109.2           109.1           0.000    
    162      5     45      3       109.2           109.1           0.000    
    163      4     45      2       109.2           109.1           0.000    
    164      5     45      2       109.2           109.1           0.000    
    165      4     45      1       109.2           109.1           0.000    
    166      5     45      1       109.2           109.1           0.000    


    166 TIME-VARIANT SPECIFIED-HEAD CELLS

 SOLVING FOR HEAD 


     3 CALLS TO PCG ROUTINE FOR TIME STEP   1 IN STRESS PERIOD   21
    50 TOTAL ITERATIONS

 MAXIMUM HEAD CHANGE FOR EACH ITERATION (1 INDICATES THE FIRST INNER ITERATION):

    HEAD CHANGE    HEAD CHANGE    HEAD CHANGE    HEAD CHANGE    HEAD CHANGE 
   LAYER,ROW,COL  LAYER,ROW,COL  LAYER,ROW,COL  LAYER,ROW,COL  LAYER,ROW,COL
 ---------------------------------------------------------------------------
  1 -0.1045      0  0.4663E-01  0  0.3859E-01  0 -0.4847E-01  0  0.3452E-01
   (  5, 43,  5)  (  5, 40,  1)  (  5, 42,  1)  (  5, 38,  1)  (  5, 35,  1)
  0 -0.2085E-01  0 -0.1386E-01  0  0.8737E-02  0 -0.9115E-02  0  0.7071E-02
   (  5, 33,  2)  (  5, 41,  6)  (  5, 40,  1)  (  5, 37,  1)  (  5, 40,  5)
  0 -0.5487E-02  0  0.3631E-02  0  0.2679E-02  0 -0.2392E-02  0  0.1812E-02
   (  5, 39,  1)  (  5, 42,  1)  (  5, 36,  5)  (  5, 37,  8)  (  5, 35,  8)
  0 -0.1347E-02  0  0.9000E-03  0  0.6784E-03  0 -0.7864E-03  0 -0.4579E-03
   (  5, 14,  1)  (  5, 34,  1)  (  5, 14,  1)  (  5, 13,  1)  (  5, 39,  1)
  0  0.3346E-03  0 -0.3200E-03  0 -0.1868E-03  0  0.1403E-03  0 -0.1062E-03
   (  5, 37,  1)  (  5, 35,  1)  (  5, 40,  1)  (  5, 12,  1)  (  5, 12,  2)
  0  0.7121E-04  0 -0.7457E-04  0  0.4349E-04  0  0.2804E-04  0 -0.2671E-04
   (  5, 39,  2)  (  5, 38,  1)  (  5, 15,  1)  (  5, 36,  1)  (  5, 34,  1)
  1  0.3579E-04  0  0.5857E-04  0  0.5022E-04  0  0.6330E-04  0 -0.2465E-04
   (  5, 31,  1)  (  5, 31,  9)  (  5, 31,  1)  (  5, 37,  1)  (  5, 34,  1)
  0  0.2475E-04  0 -0.2145E-04  0 -0.1059E-04  0  0.1292E-04  0 -0.7206E-05
   (  5, 36,  5)  (  5, 34,  6)  (  5, 38,  1)  (  5, 35,  1)  (  5, 32,  1)
  0 -0.5761E-05  0  0.4884E-05  0  0.3225E-05  0 -0.2745E-05  0 -0.1971E-05
   (  5, 31,  6)  (  5, 31,  9)  (  5, 37,  5)  (  5, 31,  9)  (  5, 35,  7)
  0  0.1407E-05  0 -0.1261E-05  0  0.1098E-05  0 -0.8262E-06  1  0.5121E-06
   (  5, 35,  1)  (  5, 31,  1)  (  5, 14,  1)  (  5, 13,  1)  (  5, 13,  1)

 MAXIMUM RESIDUAL FOR EACH ITERATION (1 INDICATES THE FIRST INNER ITERATION):

    RESIDUAL       RESIDUAL       RESIDUAL       RESIDUAL       RESIDUAL    
   LAYER,ROW,COL  LAYER,ROW,COL  LAYER,ROW,COL  LAYER,ROW,COL  LAYER,ROW,COL
 ---------------------------------------------------------------------------
  1  0.3855E-03  0  0.2986E-03  0  0.2462E-03  0  0.2000E-03  0  0.1703E-03
   (  4, 44,  2)  (  4, 35, 35)  (  4, 35, 35)  (  3, 40, 27)  (  3, 40, 27)
  0  0.1389E-03  0  0.1080E-03  0  0.8600E-04  0  0.6473E-04  0 -0.5064E-04
   (  3, 40, 27)  (  3, 40, 27)  (  3, 40, 27)  (  4, 35, 35)  (  3, 35, 35)
  0 -0.3903E-04  0 -0.2861E-04  0 -0.1994E-04  0 -0.1578E-04  0 -0.1278E-04
   (  3, 35, 35)  (  3, 35, 35)  (  3, 35, 35)  (  4, 34, 35)  (  4, 34, 35)
  0 -0.1014E-04  0 -0.9057E-05  0 -0.7510E-05  0 -0.5887E-05  0 -0.4517E-05
   (  4, 34, 35)  (  4, 34, 35)  (  4, 34, 35)  (  4, 34, 35)  (  4, 34, 35)
  0 -0.3962E-05  0 -0.3111E-05  0 -0.2333E-05  0 -0.1665E-05  0 -0.1197E-05
   (  4, 34, 35)  (  4, 34, 35)  (  4, 34, 35)  (  4, 34, 35)  (  4, 34, 35)
  0 -0.9525E-06  0 -0.7337E-06  0  0.5102E-06  0  0.3674E-06  0  0.2980E-06
   (  4, 34, 35)  (  4, 34, 35)  (  4, 35, 35)  (  4, 35, 35)  (  4, 35, 35)
  1 -0.7269E-06  0 -0.4791E-06  0 -0.2856E-06  0 -0.1673E-06  0 -0.1276E-06
   (  3, 39,  5)  (  3, 39,  5)  (  3, 39,  5)  (  3, 44,  4)  (  3, 44,  4)
  0 -0.8857E-07  0 -0.5670E-07  0  0.4479E-07  0  0.4289E-07  0  0.3884E-07
   (  3, 44,  4)  (  3, 44,  4)  (  4, 35, 35)  (  4, 43,  2)  (  4, 43,  2)
  0  0.3600E-07  0  0.2874E-07  0  0.2287E-07  0  0.1543E-07  0  0.9982E-08
   (  4, 43,  2)  (  4, 43,  2)  (  4, 43,  2)  (  4, 43,  2)  (  4, 43,  2)
  0  0.7974E-08  0  0.5908E-08  0  0.4375E-08  0  0.2955E-08  1  0.2516E-08
   (  4, 43,  2)  (  3, 44,  4)  (  3, 44,  4)  (  3, 44,  4)  (  3, 44,  4)



 OUTPUT CONTROL FOR STRESS PERIOD   21   TIME STEP    1
    SAVE HEAD FOR ALL LAYERS
    SAVE DRAWDOWN FOR ALL LAYERS
    SAVE BUDGET
    PRINT BUDGET
 UBDSV1 SAVING "         STORAGE" ON UNIT   9 AT TIME STEP  1, STRESS PERIOD  21
 UBDSV2 SAVING "   CONSTANT HEAD" ON UNIT   9 AT TIME STEP  1, STRESS PERIOD  21
 UBDSV1 SAVING "FLOW RIGHT FACE " ON UNIT   9 AT TIME STEP  1, STRESS PERIOD  21
 UBDSV1 SAVING "FLOW FRONT FACE " ON UNIT   9 AT TIME STEP  1, STRESS PERIOD  21
 UBDSV1 SAVING "FLOW LOWER FACE " ON UNIT   9 AT TIME STEP  1, STRESS PERIOD  21
 UBDSV3 SAVING "        RECHARGE" ON UNIT   9 AT TIME STEP  1, STRESS PERIOD  21

 HEAD WILL BE SAVED ON UNIT   37 AT END OF TIME STEP    1, STRESS PERIOD   21

 DRAWDOWN WILL BE SAVED ON UNIT   38 AT END OF TIME STEP    1, STRESS PERIOD   21
1
  VOLUMETRIC BUDGET FOR ENTIRE MODEL AT END OF TIME STEP    1, STRESS PERIOD  21
  ------------------------------------------------------------------------------

     CUMULATIVE VOLUMES      L**3       RATES FOR THIS TIME STEP      L**3/T
     ------------------                 ------------------------

           IN:                                      IN:
           ---                                      ---
             STORAGE =        6344.8706               STORAGE =       7.0462E-04
       CONSTANT HEAD =        5556.2896         CONSTANT HEAD =       2.2881E-03
            RECHARGE =         264.7182              RECHARGE =       1.0213E-04

            TOTAL IN =       12165.8779              TOTAL IN =       3.0949E-03

          OUT:                                     OUT:
          ----                                     ----
             STORAGE =         681.0461               STORAGE =           0.0000
       CONSTANT HEAD =       11485.1338         CONSTANT HEAD =       3.0950E-03
            RECHARGE =           0.0000              RECHARGE =           0.0000

           TOTAL OUT =       12166.1797             TOTAL OUT =       3.0950E-03

            IN - OUT =          -0.3018              IN - OUT =      -1.0501E-07

 PERCENT DISCREPANCY =          -0.00     PERCENT DISCREPANCY =          -0.00






         TIME SUMMARY AT END OF TIME STEP    1 IN STRESS PERIOD   21
                    SECONDS     MINUTES      HOURS       DAYS        YEARS
                    -----------------------------------------------------------
   TIME STEP LENGTH  86400.      1440.0      24.000      1.0000     2.73785E-03
 STRESS PERIOD TIME  86400.      1440.0      24.000      1.0000     2.73785E-03
         TOTAL TIME 2.59200E+06  43200.      720.00      30.000     8.21355E-02
1
1
                            STRESS PERIOD NO.   22, LENGTH =   86400.00    
                            -----------------------------------------------

                              NUMBER OF TIME STEPS =     1

                               MULTIPLIER FOR DELT =     1.000

                            INITIAL TIME STEP SIZE =   86400.00    

 REUSING RECH FROM LAST STRESS PERIOD

 CHD NO.   LAYER   ROW   COL    START HEAD        END HEAD         IFACE           
 ----------------------------------------------------------------------------------
      1      4      3      1       109.4           109.4           0.000    
      2      5      3      1       109.4           109.4           0.000    
      3      4      3      2       109.4           109.4           0.000    
      4      5      3      2       109.4           109.4           0.000    
      5      4      3      3       109.4           109.4           0.000    
      6      5      3      3       109.4           109.4           0.000    
      7      4      3      4       109.4           109.4           0.000    
      8      5      3      4       109.4           109.4           0.000    
      9      4      3      5       109.4           109.4           0.000    
     10      5      3      5       109.4           109.4           0.000    
     11      4      3      6       109.4           109.4           0.000    
     12      5      3      6       109.4           109.4           0.000    
     13      4      3      7       109.4           109.4           0.000    
     14      5      3      7       109.4           109.4           0.000    
     15      4      3      8       109.4           109.4           0.000    
     16      5      3      8       109.4           109.4           0.000    
     17      4      2      8       109.4           109.4           0.000    
     18      5      2      8       109.4           109.4           0.000    
     19      4      2      9       109.4           109.4           0.000    
     20      5      2      9       109.4           109.4           0.000    
     21      4      2     10       109.4           109.4           0.000    
     22      5      2     10       109.4           109.4           0.000    
     23      4      2     11       109.4           109.4           0.000    
     24      5      2     11       109.4           109.4           0.000    
     25      4      2     12       109.4           109.4           0.000    
     26      5      2     12       109.4           109.4           0.000    
     27      4      2     13       109.4           109.4           0.000    
     28      5      2     13       109.4           109.4           0.000    
     29      4      2     14       109.4           109.4           0.000    
     30      5      2     14       109.4           109.4           0.000    
     31      4      2     15       109.4           109.4           0.000    
     32      5      2     15       109.4           109.4           0.000    
     33      4      2     16       109.4           109.4           0.000    
     34      5      2     16       109.4           109.4           0.000    
     35      4      2     17       109.4           109.4           0.000    
     36      5      2     17       109.4           109.4           0.000    
     37      4      2     18       109.4           109.4           0.000    
     38      5      2     18       109.4           109.4           0.000    
     39      4      2     19       109.4           109.4           0.000    
     40      5      2     19       109.4           109.4           0.000    
     41      4      2     20       109.4           109.4           0.000    
     42      5      2     20       109.4           109.4           0.000    
     43      4      2     21       109.4           109.4           0.000    
     44      5      2     21       109.4           109.4           0.000    
     45      4      2     22       109.4           109.4           0.000    
     46      5      2     22       109.4           109.4           0.000    
     47      4      2     23       109.4           109.4           0.000    
     48      5      2     23       109.4           109.4           0.000    
     49      4      2     24       109.4           109.4           0.000    
     50      5      2     24       109.4           109.4           0.000    
     51      4      2     25       109.4           109.4           0.000    
     52      5      2     25       109.4           109.4           0.000    
     53      4      2     26       109.4           109.4           0.000    
     54      5      2     26       109.4           109.4           0.000    
     55      4      1     26       109.4           109.4           0.000    
     56      5      1     26       109.4           109.4           0.000    
     57      4      1     27       109.4           109.4           0.000    
     58      5      1     27       109.4           109.4           0.000    
     59      4      1     28       109.4           109.4           0.000    
     60      5      1     28       109.4           109.4           0.000    
     61      4      1     29       109.4           109.4           0.000    
     62      5      1     29       109.4           109.4           0.000    
     63      4      1     30       109.4           109.4           0.000    
     64      5      1     30       109.4           109.4           0.000    
     65      4      1     31       109.4           109.4           0.000    
     66      5      1     31       109.4           109.4           0.000    
     67      4      1     32       109.4           109.4           0.000    
     68      5      1     32       109.4           109.4           0.000    
     69      4      1     33       109.4           109.4           0.000    
     70      5      1     33       109.4           109.4           0.000    
     71      4      1     34       109.4           109.4           0.000    
     72      5      1     34       109.4           109.4           0.000    
     73      4      1     35       109.4           109.4           0.000    
     74      5      1     35       109.4           109.4           0.000    
     75      4     36     35       109.2           109.2           0.000    
     76      5     36     35       109.2           109.2           0.000    
     77      4     35     34       109.2           109.2           0.000    
     78      5     35     34       109.2           109.2           0.000    
     79      4     36     34       109.2           109.2           0.000    
     80      5     36     34       109.2           109.2           0.000    
     81      4     36     33       109.2           109.2           0.000    
     82      5     36     33       109.2           109.2           0.000    
     83      4     36     32       109.2           109.2           0.000    
     84      5     36     32       109.2           109.2           0.000    
     85      4     37     32       109.2           109.2           0.000    
     86      5     37     32       109.2           109.2           0.000    
     87      4     37     31       109.2           109.2           0.000    
     88      5     37     31       109.2           109.2           0.000    
     89      4     38     31       109.2           109.2           0.000    
     90      5     38     31       109.2           109.2           0.000    
     91      4     38     30       109.2           109.2           0.000    
     92      5     38     30       109.2           109.2           0.000    
     93      4     39     30       109.2           109.2           0.000    
     94      5     39     30       109.2           109.2           0.000    
     95      4     39     29       109.2           109.2           0.000    
     96      5     39     29       109.2           109.2           0.000    
     97      4     40     29       109.2           109.2           0.000    
     98      5     40     29       109.2           109.2           0.000    
     99      4     40     28       109.2           109.2           0.000    
    100      5     40     28       109.2           109.2           0.000    
    101      4     40     27       109.2           109.2           0.000    
    102      5     40     27       109.2           109.2           0.000    
    103      4     41     27       109.2           109.2           0.000    
    104      5     41     27       109.2           109.2           0.000    
    105      4     41     26       109.2           109.2           0.000    
    106      5     41     26       109.2           109.2           0.000    
    107      4     41     25       109.2           109.2           0.000    
    108      5     41     25       109.2           109.2           0.000    
    109      4     41     24       109.2           109.2           0.000    
    110      5     41     24       109.2           109.2           0.000    
    111      4     41     23       109.2           109.2           0.000    
    112      5     41     23       109.2           109.2           0.000    
    113      4     41     22       109.2           109.2           0.000    
    114      5     41     22       109.2           109.2           0.000    
    115      4     42     22       109.2           109.2           0.000    
    116      5     42     22       109.2           109.2           0.000    
    117      4     42     21       109.2           109.2           0.000    
    118      5     42     21       109.2           109.2           0.000    
    119      4     42     20       109.2           109.2           0.000    
    120      5     42     20       109.2           109.2           0.000    
    121      4     42     19       109.2           109.2           0.000    
    122      5     42     19       109.2           109.2           0.000    
    123      4     43     18       109.2           109.2           0.000    
    124      5     43     18       109.2           109.2           0.000    
    125      4     42     18       109.2           109.2           0.000    
    126      5     42     18       109.2           109.2           0.000    
    127      4     42     17       109.2           109.2           0.000    
    128      5     42     17       109.2           109.2           0.000    
    129      4     42     16       109.2           109.2           0.000    
    130      5     42     16       109.2           109.2           0.000    
    131      4     42     15       109.2           109.2           0.000    
    132      5     42     15       109.2           109.2           0.000    
    133      4     43     15       109.2           109.2           0.000    
    134      5     43     15       109.2           109.2           0.000    
    135      4     43     14       109.2           109.1           0.000    
    136      5     43     14       109.2           109.1           0.000    
    137      4     43     13       109.2           109.1           0.000    
    138      5     43     13       109.2           109.1           0.000    
    139      4     43     12       109.2           109.1           0.000    
    140      5     43     12       109.2           109.1           0.000    
    141      4     43     11       109.1           109.1           0.000    
    142      5     43     11       109.1           109.1           0.000    
    143      4     43     10       109.1           109.1           0.000    
    144      5     43     10       109.1           109.1           0.000    
    145      4     44     10       109.1           109.1           0.000    
    146      5     44     10       109.1           109.1           0.000    
    147      4     44      9       109.1           109.1           0.000    
    148      5     44      9       109.1           109.1           0.000    
    149      4     44      8       109.1           109.1           0.000    
    150      5     44      8       109.1           109.1           0.000    
    151      4     44      7       109.1           109.1           0.000    
    152      5     44      7       109.1           109.1           0.000    
    153      4     44      6       109.1           109.1           0.000    
    154      5     44      6       109.1           109.1           0.000    
    155      4     44      5       109.1           109.1           0.000    
    156      5     44      5       109.1           109.1           0.000    
    157      4     44      4       109.1           109.1           0.000    
    158      5     44      4       109.1           109.1           0.000    
    159      4     44      3       109.1           109.1           0.000    
    160      5     44      3       109.1           109.1           0.000    
    161      4     45      3       109.1           109.1           0.000    
    162      5     45      3       109.1           109.1           0.000    
    163      4     45      2       109.1           109.1           0.000    
    164      5     45      2       109.1           109.1           0.000    
    165      4     45      1       109.1           109.1           0.000    
    166      5     45      1       109.1           109.1           0.000    


    166 TIME-VARIANT SPECIFIED-HEAD CELLS

 SOLVING FOR HEAD 


     3 CALLS TO PCG ROUTINE FOR TIME STEP   1 IN STRESS PERIOD   22
    45 TOTAL ITERATIONS

 MAXIMUM HEAD CHANGE FOR EACH ITERATION (1 INDICATES THE FIRST INNER ITERATION):

    HEAD CHANGE    HEAD CHANGE    HEAD CHANGE    HEAD CHANGE    HEAD CHANGE 
   LAYER,ROW,COL  LAYER,ROW,COL  LAYER,ROW,COL  LAYER,ROW,COL  LAYER,ROW,COL
 ---------------------------------------------------------------------------
  1 -0.1201E-01  0  0.9651E-02  0 -0.7185E-02  0 -0.6745E-02  0  0.3535E-02
   (  5, 43,  5)  (  5, 36,  1)  (  5, 32,  1)  (  5, 38,  1)  (  5, 34,  1)
  0  0.2995E-02  0  0.2489E-02  0  0.1498E-02  0 -0.1067E-02  0 -0.1227E-02
   (  5, 37,  1)  (  5, 33,  5)  (  5, 37,  5)  (  5, 37,  1)  (  5, 36,  5)
  0 -0.9678E-03  0 -0.5669E-03  0  0.3982E-03  0  0.5094E-03  0 -0.3630E-03
   (  5, 39,  1)  (  5, 34,  9)  (  5, 30, 10)  (  5, 33,  9)  (  5, 30,  8)
  0  0.1824E-03  0 -0.1080E-03  0  0.8675E-04  0  0.7505E-04  0  0.5399E-04
   (  5, 28,  8)  (  5, 26,  6)  (  5, 32,  3)  (  5, 26, 11)  (  5, 36,  1)
  0 -0.5382E-04  0 -0.5053E-04  0  0.3500E-04  0 -0.2806E-04  0  0.1984E-04
   (  5, 34,  1)  (  5, 15,  1)  (  5, 14,  1)  (  5, 13,  1)  (  5, 13,  1)
  0 -0.1345E-04  0  0.9463E-05  0  0.8268E-05  0 -0.5925E-05  0 -0.3234E-05
   (  5, 37,  1)  (  5, 39,  1)  (  5, 12,  1)  (  5, 12,  1)  (  5, 16,  1)
  1  0.1108E-04  0  0.1368E-04  0 -0.1122E-04  0 -0.1017E-04  0  0.6863E-05
   (  5, 27, 10)  (  5, 37,  1)  (  5, 33,  1)  (  5, 39,  1)  (  5, 36,  1)
  0  0.5407E-05  0 -0.4374E-05  0  0.2479E-05  0 -0.2140E-05  0  0.1659E-05
   (  5, 27,  2)  (  5, 28,  6)  (  5, 24,  4)  (  5, 20,  1)  (  5, 15,  1)
  0 -0.1507E-05  0  0.1461E-05  0 -0.1096E-05  0 -0.4967E-06  1  0.4342E-06
   (  5, 41,  2)  (  5, 40,  1)  (  5, 40,  1)  (  5, 14,  2)  (  5, 14,  2)

 MAXIMUM RESIDUAL FOR EACH ITERATION (1 INDICATES THE FIRST INNER ITERATION):

    RESIDUAL       RESIDUAL       RESIDUAL       RESIDUAL       RESIDUAL    
   LAYER,ROW,COL  LAYER,ROW,COL  LAYER,ROW,COL  LAYER,ROW,COL  LAYER,ROW,COL
 ---------------------------------------------------------------------------
  1  0.4153E-04  0  0.3450E-04  0  0.2599E-04  0  0.2005E-04  0 -0.1722E-04
   (  3,  3,  1)  (  4, 35, 35)  (  4, 35, 35)  (  3,  3,  1)  (  4, 34, 35)
  0 -0.1527E-04  0 -0.1181E-04  0 -0.1050E-04  0 -0.8720E-05  0 -0.7018E-05
   (  4, 34, 35)  (  4, 43,  5)  (  4, 43,  4)  (  4, 43,  4)  (  4, 43,  4)
  0 -0.5031E-05  0 -0.4180E-05  0 -0.3409E-05  0 -0.2666E-05  0 -0.2067E-05
   (  4, 43,  4)  (  4, 44,  2)  (  4, 44,  2)  (  4, 44,  2)  (  4, 44,  2)
  0 -0.1461E-05  0 -0.1084E-05  0 -0.9166E-06  0 -0.6402E-06  0 -0.4355E-06
   (  4, 44,  2)  (  4, 44,  2)  (  4, 44,  2)  (  4, 44,  2)  (  4, 44,  2)
  0 -0.3382E-06  0  0.2270E-06  0  0.1679E-06  0  0.1253E-06  0  0.9844E-07
   (  4, 44,  2)  (  4, 43,  2)  (  4, 43,  2)  (  4, 35, 35)  (  4, 35, 35)
  0  0.7831E-07  0  0.6484E-07  0  0.4474E-07  0 -0.2850E-07  0 -0.2029E-07
   (  4, 35, 35)  (  4, 35, 35)  (  4, 35, 35)  (  3,  3,  2)  (  3,  3,  2)
  1 -0.2193E-06  0 -0.1779E-06  0 -0.1190E-06  0 -0.7358E-07  0 -0.4431E-07
   (  3, 26,  8)  (  3, 26,  8)  (  3, 26,  8)  (  3, 26,  8)  (  3, 26,  8)
  0 -0.2622E-07  0  0.1484E-07  0  0.1324E-07  0 -0.1163E-07  0 -0.1156E-07
   (  3, 26,  8)  (  4, 26,  8)  (  3, 26,  9)  (  4, 25,  8)  (  4, 25,  8)
  0 -0.8429E-08  0 -0.6414E-08  0 -0.4615E-08  0 -0.3391E-08  1 -0.3077E-08
   (  4, 26,  7)  (  4, 25,  8)  (  4, 25,  8)  (  4, 26,  7)  (  4, 26,  7)



 OUTPUT CONTROL FOR STRESS PERIOD   22   TIME STEP    1
    SAVE HEAD FOR ALL LAYERS
    SAVE DRAWDOWN FOR ALL LAYERS
    SAVE BUDGET
    PRINT BUDGET
 UBDSV1 SAVING "         STORAGE" ON UNIT   9 AT TIME STEP  1, STRESS PERIOD  22
 UBDSV2 SAVING "   CONSTANT HEAD" ON UNIT   9 AT TIME STEP  1, STRESS PERIOD  22
 UBDSV1 SAVING "FLOW RIGHT FACE " ON UNIT   9 AT TIME STEP  1, STRESS PERIOD  22
 UBDSV1 SAVING "FLOW FRONT FACE " ON UNIT   9 AT TIME STEP  1, STRESS PERIOD  22
 UBDSV1 SAVING "FLOW LOWER FACE " ON UNIT   9 AT TIME STEP  1, STRESS PERIOD  22
 UBDSV3 SAVING "        RECHARGE" ON UNIT   9 AT TIME STEP  1, STRESS PERIOD  22

 HEAD WILL BE SAVED ON UNIT   37 AT END OF TIME STEP    1, STRESS PERIOD   22

 DRAWDOWN WILL BE SAVED ON UNIT   38 AT END OF TIME STEP    1, STRESS PERIOD   22
1
  VOLUMETRIC BUDGET FOR ENTIRE MODEL AT END OF TIME STEP    1, STRESS PERIOD  22
  ------------------------------------------------------------------------------

     CUMULATIVE VOLUMES      L**3       RATES FOR THIS TIME STEP      L**3/T
     ------------------                 ------------------------

           IN:                                      IN:
           ---                                      ---
             STORAGE =        6373.1426               STORAGE =       3.2722E-04
       CONSTANT HEAD =        5758.0361         CONSTANT HEAD =       2.3350E-03
            RECHARGE =         273.5421              RECHARGE =       1.0213E-04

            TOTAL IN =       12404.7207              TOTAL IN =       2.7644E-03

          OUT:                                     OUT:
          ----                                     ----
             STORAGE =         681.0461               STORAGE =           0.0000
       CONSTANT HEAD =       11723.9844         CONSTANT HEAD =       2.7645E-03
            RECHARGE =           0.0000              RECHARGE =           0.0000

           TOTAL OUT =       12405.0303             TOTAL OUT =       2.7645E-03

            IN - OUT =          -0.3096              IN - OUT =      -9.7556E-08

 PERCENT DISCREPANCY =          -0.00     PERCENT DISCREPANCY =          -0.00






         TIME SUMMARY AT END OF TIME STEP    1 IN STRESS PERIOD   22
                    SECONDS     MINUTES      HOURS       DAYS        YEARS
                    -----------------------------------------------------------
   TIME STEP LENGTH  86400.      1440.0      24.000      1.0000     2.73785E-03
 STRESS PERIOD TIME  86400.      1440.0      24.000      1.0000     2.73785E-03
         TOTAL TIME 2.67840E+06  44640.      744.00      31.000     8.48734E-02
1
1
                            STRESS PERIOD NO.   23, LENGTH =   345600.0    
                            -----------------------------------------------

                              NUMBER OF TIME STEPS =     4

                               MULTIPLIER FOR DELT =     1.000

                            INITIAL TIME STEP SIZE =   86400.00    

 REUSING RECH FROM LAST STRESS PERIOD

 CHD NO.   LAYER   ROW   COL    START HEAD        END HEAD         IFACE           
 ----------------------------------------------------------------------------------
      1      4      3      1       109.4           109.3           0.000    
      2      5      3      1       109.4           109.3           0.000    
      3      4      3      2       109.4           109.3           0.000    
      4      5      3      2       109.4           109.3           0.000    
      5      4      3      3       109.4           109.3           0.000    
      6      5      3      3       109.4           109.3           0.000    
      7      4      3      4       109.4           109.3           0.000    
      8      5      3      4       109.4           109.3           0.000    
      9      4      3      5       109.4           109.3           0.000    
     10      5      3      5       109.4           109.3           0.000    
     11      4      3      6       109.4           109.3           0.000    
     12      5      3      6       109.4           109.3           0.000    
     13      4      3      7       109.4           109.3           0.000    
     14      5      3      7       109.4           109.3           0.000    
     15      4      3      8       109.4           109.3           0.000    
     16      5      3      8       109.4           109.3           0.000    
     17      4      2      8       109.4           109.3           0.000    
     18      5      2      8       109.4           109.3           0.000    
     19      4      2      9       109.4           109.3           0.000    
     20      5      2      9       109.4           109.3           0.000    
     21      4      2     10       109.4           109.3           0.000    
     22      5      2     10       109.4           109.3           0.000    
     23      4      2     11       109.4           109.3           0.000    
     24      5      2     11       109.4           109.3           0.000    
     25      4      2     12       109.4           109.3           0.000    
     26      5      2     12       109.4           109.3           0.000    
     27      4      2     13       109.4           109.3           0.000    
     28      5      2     13       109.4           109.3           0.000    
     29      4      2     14       109.4           109.3           0.000    
     30      5      2     14       109.4           109.3           0.000    
     31      4      2     15       109.4           109.3           0.000    
     32      5      2     15       109.4           109.3           0.000    
     33      4      2     16       109.4           109.3           0.000    
     34      5      2     16       109.4           109.3           0.000    
     35      4      2     17       109.4           109.3           0.000    
     36      5      2     17       109.4           109.3           0.000    
     37      4      2     18       109.4           109.3           0.000    
     38      5      2     18       109.4           109.3           0.000    
     39      4      2     19       109.4           109.3           0.000    
     40      5      2     19       109.4           109.3           0.000    
     41      4      2     20       109.4           109.3           0.000    
     42      5      2     20       109.4           109.3           0.000    
     43      4      2     21       109.4           109.3           0.000    
     44      5      2     21       109.4           109.3           0.000    
     45      4      2     22       109.4           109.3           0.000    
     46      5      2     22       109.4           109.3           0.000    
     47      4      2     23       109.4           109.3           0.000    
     48      5      2     23       109.4           109.3           0.000    
     49      4      2     24       109.4           109.3           0.000    
     50      5      2     24       109.4           109.3           0.000    
     51      4      2     25       109.4           109.3           0.000    
     52      5      2     25       109.4           109.3           0.000    
     53      4      2     26       109.4           109.3           0.000    
     54      5      2     26       109.4           109.3           0.000    
     55      4      1     26       109.4           109.3           0.000    
     56      5      1     26       109.4           109.3           0.000    
     57      4      1     27       109.4           109.3           0.000    
     58      5      1     27       109.4           109.3           0.000    
     59      4      1     28       109.4           109.3           0.000    
     60      5      1     28       109.4           109.3           0.000    
     61      4      1     29       109.4           109.3           0.000    
     62      5      1     29       109.4           109.3           0.000    
     63      4      1     30       109.4           109.3           0.000    
     64      5      1     30       109.4           109.3           0.000    
     65      4      1     31       109.4           109.3           0.000    
     66      5      1     31       109.4           109.3           0.000    
     67      4      1     32       109.4           109.3           0.000    
     68      5      1     32       109.4           109.3           0.000    
     69      4      1     33       109.4           109.3           0.000    
     70      5      1     33       109.4           109.3           0.000    
     71      4      1     34       109.4           109.3           0.000    
     72      5      1     34       109.4           109.3           0.000    
     73      4      1     35       109.4           109.3           0.000    
     74      5      1     35       109.4           109.3           0.000    
     75      4     36     35       109.2           109.0           0.000    
     76      5     36     35       109.2           109.0           0.000    
     77      4     35     34       109.2           109.0           0.000    
     78      5     35     34       109.2           109.0           0.000    
     79      4     36     34       109.2           109.0           0.000    
     80      5     36     34       109.2           109.0           0.000    
     81      4     36     33       109.2           109.0           0.000    
     82      5     36     33       109.2           109.0           0.000    
     83      4     36     32       109.2           109.0           0.000    
     84      5     36     32       109.2           109.0           0.000    
     85      4     37     32       109.2           109.0           0.000    
     86      5     37     32       109.2           109.0           0.000    
     87      4     37     31       109.2           109.0           0.000    
     88      5     37     31       109.2           109.0           0.000    
     89      4     38     31       109.2           109.0           0.000    
     90      5     38     31       109.2           109.0           0.000    
     91      4     38     30       109.2           109.0           0.000    
     92      5     38     30       109.2           109.0           0.000    
     93      4     39     30       109.2           109.0           0.000    
     94      5     39     30       109.2           109.0           0.000    
     95      4     39     29       109.2           109.0           0.000    
     96      5     39     29       109.2           109.0           0.000    
     97      4     40     29       109.2           109.0           0.000    
     98      5     40     29       109.2           109.0           0.000    
     99      4     40     28       109.2           109.0           0.000    
    100      5     40     28       109.2           109.0           0.000    
    101      4     40     27       109.2           109.0           0.000    
    102      5     40     27       109.2           109.0           0.000    
    103      4     41     27       109.2           109.0           0.000    
    104      5     41     27       109.2           109.0           0.000    
    105      4     41     26       109.2           109.0           0.000    
    106      5     41     26       109.2           109.0           0.000    
    107      4     41     25       109.2           109.0           0.000    
    108      5     41     25       109.2           109.0           0.000    
    109      4     41     24       109.2           109.0           0.000    
    110      5     41     24       109.2           109.0           0.000    
    111      4     41     23       109.2           109.0           0.000    
    112      5     41     23       109.2           109.0           0.000    
    113      4     41     22       109.2           109.0           0.000    
    114      5     41     22       109.2           109.0           0.000    
    115      4     42     22       109.2           109.0           0.000    
    116      5     42     22       109.2           109.0           0.000    
    117      4     42     21       109.2           109.0           0.000    
    118      5     42     21       109.2           109.0           0.000    
    119      4     42     20       109.2           109.0           0.000    
    120      5     42     20       109.2           109.0           0.000    
    121      4     42     19       109.2           109.0           0.000    
    122      5     42     19       109.2           109.0           0.000    
    123      4     43     18       109.2           109.0           0.000    
    124      5     43     18       109.2           109.0           0.000    
    125      4     42     18       109.2           109.0           0.000    
    126      5     42     18       109.2           109.0           0.000    
    127      4     42     17       109.2           109.0           0.000    
    128      5     42     17       109.2           109.0           0.000    
    129      4     42     16       109.2           109.0           0.000    
    130      5     42     16       109.2           109.0           0.000    
    131      4     42     15       109.2           109.0           0.000    
    132      5     42     15       109.2           109.0           0.000    
    133      4     43     15       109.2           109.0           0.000    
    134      5     43     15       109.2           109.0           0.000    
    135      4     43     14       109.1           109.0           0.000    
    136      5     43     14       109.1           109.0           0.000    
    137      4     43     13       109.1           109.0           0.000    
    138      5     43     13       109.1           109.0           0.000    
    139      4     43     12       109.1           109.0           0.000    
    140      5     43     12       109.1           109.0           0.000    
    141      4     43     11       109.1           109.0           0.000    
    142      5     43     11       109.1           109.0           0.000    
    143      4     43     10       109.1           109.0           0.000    
    144      5     43     10       109.1           109.0           0.000    
    145      4     44     10       109.1           109.0           0.000    
    146      5     44     10       109.1           109.0           0.000    
    147      4     44      9       109.1           109.0           0.000    
    148      5     44      9       109.1           109.0           0.000    
    149      4     44      8       109.1           109.0           0.000    
    150      5     44      8       109.1           109.0           0.000    
    151      4     44      7       109.1           109.0           0.000    
    152      5     44      7       109.1           109.0           0.000    
    153      4     44      6       109.1           109.0           0.000    
    154      5     44      6       109.1           109.0           0.000    
    155      4     44      5       109.1           109.0           0.000    
    156      5     44      5       109.1           109.0           0.000    
    157      4     44      4       109.1           109.0           0.000    
    158      5     44      4       109.1           109.0           0.000    
    159      4     44      3       109.1           109.0           0.000    
    160      5     44      3       109.1           109.0           0.000    
    161      4     45      3       109.1           109.0           0.000    
    162      5     45      3       109.1           109.0           0.000    
    163      4     45      2       109.1           109.0           0.000    
    164      5     45      2       109.1           109.0           0.000    
    165      4     45      1       109.1           109.0           0.000    
    166      5     45      1       109.1           109.0           0.000    


    166 TIME-VARIANT SPECIFIED-HEAD CELLS

 SOLVING FOR HEAD 


     3 CALLS TO PCG ROUTINE FOR TIME STEP   1 IN STRESS PERIOD   23
    52 TOTAL ITERATIONS

 MAXIMUM HEAD CHANGE FOR EACH ITERATION (1 INDICATES THE FIRST INNER ITERATION):

    HEAD CHANGE    HEAD CHANGE    HEAD CHANGE    HEAD CHANGE    HEAD CHANGE 
   LAYER,ROW,COL  LAYER,ROW,COL  LAYER,ROW,COL  LAYER,ROW,COL  LAYER,ROW,COL
 ---------------------------------------------------------------------------
  1 -0.1173      0  0.5857E-01  0  0.4239E-01  0 -0.5034E-01  0  0.3919E-01
   (  5, 43,  5)  (  5, 40,  1)  (  5, 42,  1)  (  5, 38,  1)  (  5, 35,  1)
  0 -0.2467E-01  0 -0.1500E-01  0  0.1044E-01  0 -0.1047E-01  0  0.8180E-02
   (  5, 33,  2)  (  5, 41,  6)  (  5, 40,  1)  (  5, 37,  1)  (  5, 40,  5)
  0 -0.5987E-02  0  0.4021E-02  0  0.2927E-02  0 -0.2516E-02  0  0.2046E-02
   (  5, 39,  1)  (  5, 42,  1)  (  5, 36,  5)  (  5, 37,  8)  (  5, 35,  8)
  0 -0.1513E-02  0 -0.8130E-03  0  0.7116E-03  0 -0.8594E-03  0  0.4411E-03
   (  5, 14,  1)  (  5, 36,  4)  (  5, 32,  2)  (  5, 13,  1)  (  5, 12,  1)
  0  0.3265E-03  0 -0.3112E-03  0  0.2250E-03  0 -0.1713E-03  0 -0.1200E-03
   (  5, 37,  1)  (  5, 35,  1)  (  5, 37,  4)  (  5, 36,  1)  (  5, 12,  2)
  0 -0.9550E-04  0  0.6478E-04  0 -0.4578E-04  0 -0.2868E-04  0 -0.2968E-04
   (  5, 37,  1)  (  5, 40,  2)  (  5, 38,  1)  (  5, 35,  6)  (  5, 34,  1)
  1  0.6707E-04  0  0.1104E-03  0  0.8504E-04  0  0.6963E-04  0  0.5229E-04
   (  5, 31,  1)  (  3, 20,  3)  (  5, 30,  2)  (  5, 21,  1)  (  5, 35,  3)
  0 -0.3880E-04  0  0.4407E-04  0 -0.3693E-04  0 -0.1638E-04  0  0.1265E-04
   (  5, 34,  1)  (  5, 39,  1)  (  5, 38,  1)  (  5, 15,  1)  (  5, 13,  1)
  0 -0.7854E-05  0  0.7163E-05  0 -0.5624E-05  0 -0.5473E-05  0  0.3631E-05
   (  5, 13,  1)  (  5, 39,  1)  (  5, 40,  1)  (  5, 31,  9)  (  5, 13,  1)
  0 -0.2526E-05  0  0.1776E-05  0  0.1411E-05  0 -0.1170E-05  0  0.1003E-05
   (  5, 31,  1)  (  5, 35,  1)  (  5, 40,  1)  (  5, 42,  1)  (  5, 40,  1)
  0 -0.6610E-06  1  0.5186E-06
   (  5, 36,  1)  (  5, 36,  1)

 MAXIMUM RESIDUAL FOR EACH ITERATION (1 INDICATES THE FIRST INNER ITERATION):

    RESIDUAL       RESIDUAL       RESIDUAL       RESIDUAL       RESIDUAL    
   LAYER,ROW,COL  LAYER,ROW,COL  LAYER,ROW,COL  LAYER,ROW,COL  LAYER,ROW,COL
 ---------------------------------------------------------------------------
  1  0.3367E-03  0  0.2850E-03  0  0.2293E-03  0  0.1828E-03  0  0.1544E-03
   (  4, 44,  2)  (  4, 35, 35)  (  4, 35, 35)  (  3, 40, 27)  (  3, 40, 27)
  0  0.1235E-03  0 -0.9627E-04  0 -0.8309E-04  0 -0.6730E-04  0 -0.5229E-04
   (  3, 40, 27)  (  4, 43,  4)  (  4, 43,  4)  (  4, 43,  4)  (  4, 43,  4)
  0 -0.3869E-04  0 -0.2945E-04  0 -0.2251E-04  0 -0.1671E-04  0 -0.1230E-04
   (  4, 43,  4)  (  4, 44,  2)  (  4, 44,  2)  (  4, 44,  2)  (  4, 44,  2)
  0 -0.8997E-05  0 -0.7499E-05  0 -0.6652E-05  0 -0.5247E-05  0 -0.3991E-05
   (  4, 34, 35)  (  4, 34, 35)  (  4, 34, 35)  (  4, 34, 35)  (  4, 34, 35)
  0 -0.3168E-05  0 -0.2673E-05  0 -0.2015E-05  0 -0.1409E-05  0 -0.9836E-06
   (  4, 34, 35)  (  4, 34, 35)  (  4, 34, 35)  (  4, 34, 35)  (  4, 34, 35)
  0 -0.7693E-06  0  0.5899E-06  0  0.4468E-06  0  0.3116E-06  0  0.2199E-06
   (  4, 34, 35)  (  4, 35, 35)  (  4, 35, 35)  (  4, 35, 35)  (  4, 35, 35)
  1 -0.8068E-06  0 -0.5845E-06  0 -0.3710E-06  0 -0.2618E-06  0 -0.1945E-06
   (  3, 36,  6)  (  3, 36,  6)  (  3, 36,  6)  (  3, 21,  1)  (  3, 21,  1)
  0 -0.1516E-06  0 -0.1069E-06  0 -0.8080E-07  0 -0.5688E-07  0  0.4804E-07
   (  3, 21,  1)  (  3, 21,  1)  (  3, 21,  1)  (  3, 21,  1)  (  4, 43,  5)
  0 -0.4051E-07  0  0.3290E-07  0  0.2815E-07  0  0.1967E-07  0  0.1100E-07
   (  4, 20,  2)  (  4, 43,  4)  (  4, 43,  2)  (  4, 43,  2)  (  4, 43,  2)
  0  0.8962E-08  0  0.8103E-08  0 -0.6308E-08  0 -0.5149E-08  0 -0.3883E-08
   (  4, 44,  2)  (  4, 44,  2)  (  4, 42,  2)  (  4, 42,  2)  (  4, 42,  2)
  0 -0.2826E-08  1 -0.2766E-08
   (  4, 42,  2)  (  4, 42,  2)



 OUTPUT CONTROL FOR STRESS PERIOD   23   TIME STEP    1
    SAVE HEAD FOR ALL LAYERS
    SAVE DRAWDOWN FOR ALL LAYERS
    SAVE BUDGET
    PRINT BUDGET
 UBDSV1 SAVING "         STORAGE" ON UNIT   9 AT TIME STEP  1, STRESS PERIOD  23
 UBDSV2 SAVING "   CONSTANT HEAD" ON UNIT   9 AT TIME STEP  1, STRESS PERIOD  23
 UBDSV1 SAVING "FLOW RIGHT FACE " ON UNIT   9 AT TIME STEP  1, STRESS PERIOD  23
 UBDSV1 SAVING "FLOW FRONT FACE " ON UNIT   9 AT TIME STEP  1, STRESS PERIOD  23
 UBDSV1 SAVING "FLOW LOWER FACE " ON UNIT   9 AT TIME STEP  1, STRESS PERIOD  23
 UBDSV3 SAVING "        RECHARGE" ON UNIT   9 AT TIME STEP  1, STRESS PERIOD  23

 HEAD WILL BE SAVED ON UNIT   37 AT END OF TIME STEP    1, STRESS PERIOD   23

 DRAWDOWN WILL BE SAVED ON UNIT   38 AT END OF TIME STEP    1, STRESS PERIOD   23
1
  VOLUMETRIC BUDGET FOR ENTIRE MODEL AT END OF TIME STEP    1, STRESS PERIOD  23
  ------------------------------------------------------------------------------

     CUMULATIVE VOLUMES      L**3       RATES FOR THIS TIME STEP      L**3/T
     ------------------                 ------------------------

           IN:                                      IN:
           ---                                      ---
             STORAGE =        6468.7231               STORAGE =       1.1063E-03
       CONSTANT HEAD =        5946.2930         CONSTANT HEAD =       2.1789E-03
            RECHARGE =         282.3661              RECHARGE =       1.0213E-04

            TOTAL IN =       12697.3818              TOTAL IN =       3.3873E-03

          OUT:                                     OUT:
          ----                                     ----
             STORAGE =         681.0461               STORAGE =           0.0000
       CONSTANT HEAD =       12016.6543         CONSTANT HEAD =       3.3874E-03
            RECHARGE =           0.0000              RECHARGE =           0.0000

           TOTAL OUT =       12697.7002             TOTAL OUT =       3.3874E-03

            IN - OUT =          -0.3184              IN - OUT =      -1.0035E-07

 PERCENT DISCREPANCY =          -0.00     PERCENT DISCREPANCY =          -0.00






         TIME SUMMARY AT END OF TIME STEP    1 IN STRESS PERIOD   23
                    SECONDS     MINUTES      HOURS       DAYS        YEARS
                    -----------------------------------------------------------
   TIME STEP LENGTH  86400.      1440.0      24.000      1.0000     2.73785E-03
 STRESS PERIOD TIME  86400.      1440.0      24.000      1.0000     2.73785E-03
         TOTAL TIME 2.76480E+06  46080.      768.00      32.000     8.76112E-02
1

 SOLVING FOR HEAD 
     3 CALLS TO PCG ROUTINE FOR TIME STEP   2 IN STRESS PERIOD   23
    51 TOTAL ITERATIONS

 MAXIMUM HEAD CHANGE FOR EACH ITERATION (1 INDICATES THE FIRST INNER ITERATION):

    HEAD CHANGE    HEAD CHANGE    HEAD CHANGE    HEAD CHANGE    HEAD CHANGE 
   LAYER,ROW,COL  LAYER,ROW,COL  LAYER,ROW,COL  LAYER,ROW,COL  LAYER,ROW,COL
 ---------------------------------------------------------------------------
  1 -0.1205      0  0.6686E-01  0  0.4302E-01  0 -0.4656E-01  0  0.3625E-01
   (  5, 43,  5)  (  5, 39,  1)  (  5, 42,  1)  (  5, 39,  1)  (  5, 35,  1)
  0 -0.2694E-01  0  0.1733E-01  0  0.1072E-01  0 -0.1040E-01  0  0.7970E-02
   (  5, 33,  2)  (  5, 31,  2)  (  5, 40,  1)  (  5, 37,  1)  (  5, 40,  5)
  0 -0.5644E-02  0  0.3910E-02  0  0.2945E-02  0 -0.2121E-02  0  0.2064E-02
   (  5, 39,  1)  (  5, 35,  5)  (  5, 42,  6)  (  5, 37,  8)  (  5, 35,  8)
  0 -0.1362E-02  0  0.9885E-03  0  0.6341E-03  0 -0.6841E-03  0  0.5190E-03
   (  5, 32,  8)  (  5, 14,  1)  (  5, 36,  1)  (  5, 32,  1)  (  5, 13,  1)
  0  0.2764E-03  0 -0.2476E-03  0  0.2087E-03  0 -0.1791E-03  0 -0.1102E-03
   (  5, 29, 10)  (  5, 35,  1)  (  5, 36,  3)  (  5, 36,  1)  (  5, 12,  2)
  0 -0.8600E-04  0  0.6352E-04  0 -0.4636E-04  0 -0.2977E-04  0 -0.2129E-04
   (  5, 38,  1)  (  5, 40,  2)  (  5, 38,  1)  (  5, 35,  6)  (  5, 35,  1)
  1  0.8886E-04  0  0.7819E-04  0  0.1167E-03  0  0.7888E-04  0  0.3497E-04
   (  5, 26,  1)  (  3, 23,  9)  (  5, 31,  1)  (  5, 38,  1)  (  5, 27,  8)
  0 -0.3765E-04  0 -0.2483E-04  0  0.1947E-04  0 -0.1858E-04  0  0.1568E-04
   (  5, 25,  2)  (  5, 26,  7)  (  5, 35,  1)  (  5, 38,  1)  (  5, 39,  1)
  0 -0.1053E-04  0  0.8076E-05  0 -0.7292E-05  0 -0.5089E-05  0  0.3846E-05
   (  5, 38,  1)  (  5, 39,  1)  (  5, 40,  1)  (  5, 31,  9)  (  5, 13,  1)
  0 -0.2959E-05  0 -0.1562E-05  0  0.1736E-05  0 -0.1224E-05  0  0.8141E-06
   (  5, 13,  1)  (  5, 29,  4)  (  5, 30,  1)  (  5, 13,  1)  (  5, 40,  1)
  1 -0.4493E-06
   (  5, 13,  2)

 MAXIMUM RESIDUAL FOR EACH ITERATION (1 INDICATES THE FIRST INNER ITERATION):

    RESIDUAL       RESIDUAL       RESIDUAL       RESIDUAL       RESIDUAL    
   LAYER,ROW,COL  LAYER,ROW,COL  LAYER,ROW,COL  LAYER,ROW,COL  LAYER,ROW,COL
 ---------------------------------------------------------------------------
  1  0.3394E-03  0  0.2897E-03  0  0.2282E-03  0  0.1765E-03  0  0.1475E-03
   (  4, 35, 35)  (  4, 35, 35)  (  4, 35, 35)  (  3, 40, 27)  (  3, 40, 27)
  0  0.1202E-03  0 -0.9638E-04  0 -0.8282E-04  0 -0.6694E-04  0 -0.5168E-04
   (  3, 40, 27)  (  4, 43,  4)  (  4, 43,  4)  (  4, 43,  4)  (  4, 43,  4)
  0 -0.3858E-04  0 -0.2935E-04  0 -0.2242E-04  0 -0.1669E-04  0 -0.1227E-04
   (  4, 43,  4)  (  4, 44,  2)  (  4, 44,  2)  (  4, 44,  2)  (  4, 44,  2)
  0 -0.8734E-05  0 -0.6861E-05  0 -0.5915E-05  0 -0.4953E-05  0 -0.3775E-05
   (  4, 34, 35)  (  4, 34, 35)  (  4, 34, 35)  (  4, 34, 35)  (  4, 34, 35)
  0 -0.2803E-05  0 -0.2288E-05  0 -0.1828E-05  0 -0.1290E-05  0 -0.8912E-06
   (  4, 34, 35)  (  4, 34, 35)  (  4, 34, 35)  (  4, 34, 35)  (  4, 34, 35)
  0  0.6658E-06  0  0.5564E-06  0  0.4246E-06  0  0.2941E-06  0  0.2005E-06
   (  4, 35, 35)  (  4, 35, 35)  (  4, 35, 35)  (  4, 35, 35)  (  4, 35, 35)
  1 -0.7826E-06  0 -0.5851E-06  0 -0.3633E-06  0 -0.1917E-06  0 -0.1128E-06
   (  3, 23,  9)  (  3, 23,  9)  (  3, 23,  9)  (  3, 23,  9)  (  3, 23,  9)
  0 -0.1009E-06  0 -0.8124E-07  0 -0.6858E-07  0 -0.6220E-07  0 -0.5290E-07
   (  4, 39,  1)  (  4, 40,  1)  (  4, 41,  1)  (  3, 44,  4)  (  3, 44,  4)
  0  0.3934E-07  0  0.3397E-07  0  0.2976E-07  0  0.2095E-07  0  0.1376E-07
   (  4, 43,  2)  (  4, 43,  2)  (  4, 43,  2)  (  4, 43,  2)  (  3, 44,  5)
  0  0.1003E-07  0  0.7795E-08  0 -0.6212E-08  0 -0.4302E-08  0 -0.3841E-08
   (  3, 44,  5)  (  3, 44,  5)  (  4, 41,  2)  (  4, 42,  2)  (  4, 42,  2)
  1 -0.3241E-08
   (  4, 42,  2)



 OUTPUT CONTROL FOR STRESS PERIOD   23   TIME STEP    2
    SAVE HEAD FOR ALL LAYERS
    SAVE DRAWDOWN FOR ALL LAYERS
    SAVE BUDGET
    PRINT BUDGET
 UBDSV1 SAVING "         STORAGE" ON UNIT   9 AT TIME STEP  2, STRESS PERIOD  23
 UBDSV2 SAVING "   CONSTANT HEAD" ON UNIT   9 AT TIME STEP  2, STRESS PERIOD  23
 UBDSV1 SAVING "FLOW RIGHT FACE " ON UNIT   9 AT TIME STEP  2, STRESS PERIOD  23
 UBDSV1 SAVING "FLOW FRONT FACE " ON UNIT   9 AT TIME STEP  2, STRESS PERIOD  23
 UBDSV1 SAVING "FLOW LOWER FACE " ON UNIT   9 AT TIME STEP  2, STRESS PERIOD  23
 UBDSV3 SAVING "        RECHARGE" ON UNIT   9 AT TIME STEP  2, STRESS PERIOD  23

 HEAD WILL BE SAVED ON UNIT   37 AT END OF TIME STEP    2, STRESS PERIOD   23

 DRAWDOWN WILL BE SAVED ON UNIT   38 AT END OF TIME STEP    2, STRESS PERIOD   23
1
  VOLUMETRIC BUDGET FOR ENTIRE MODEL AT END OF TIME STEP    2, STRESS PERIOD  23
  ------------------------------------------------------------------------------

     CUMULATIVE VOLUMES      L**3       RATES FOR THIS TIME STEP      L**3/T
     ------------------                 ------------------------

           IN:                                      IN:
           ---                                      ---
             STORAGE =        6583.4019               STORAGE =       1.3273E-03
       CONSTANT HEAD =        6138.2788         CONSTANT HEAD =       2.2221E-03
            RECHARGE =         291.1900              RECHARGE =       1.0213E-04

            TOTAL IN =       13012.8711              TOTAL IN =       3.6515E-03

          OUT:                                     OUT:
          ----                                     ----
             STORAGE =         681.0461               STORAGE =           0.0000
       CONSTANT HEAD =       12332.1504         CONSTANT HEAD =       3.6516E-03
            RECHARGE =           0.0000              RECHARGE =           0.0000

           TOTAL OUT =       13013.1963             TOTAL OUT =       3.6516E-03

            IN - OUT =          -0.3252              IN - OUT =      -9.3831E-08

 PERCENT DISCREPANCY =          -0.00     PERCENT DISCREPANCY =          -0.00






         TIME SUMMARY AT END OF TIME STEP    2 IN STRESS PERIOD   23
                    SECONDS     MINUTES      HOURS       DAYS        YEARS
                    -----------------------------------------------------------
   TIME STEP LENGTH  86400.      1440.0      24.000      1.0000     2.73785E-03
 STRESS PERIOD TIME 1.72800E+05  2880.0      48.000      2.0000     5.47570E-03
         TOTAL TIME 2.85120E+06  47520.      792.00      33.000     9.03491E-02
1

 SOLVING FOR HEAD 
     3 CALLS TO PCG ROUTINE FOR TIME STEP   3 IN STRESS PERIOD   23
    51 TOTAL ITERATIONS

 MAXIMUM HEAD CHANGE FOR EACH ITERATION (1 INDICATES THE FIRST INNER ITERATION):

    HEAD CHANGE    HEAD CHANGE    HEAD CHANGE    HEAD CHANGE    HEAD CHANGE 
   LAYER,ROW,COL  LAYER,ROW,COL  LAYER,ROW,COL  LAYER,ROW,COL  LAYER,ROW,COL
 ---------------------------------------------------------------------------
  1 -0.1215      0  0.6924E-01  0  0.4304E-01  0 -0.4482E-01  0  0.3502E-01
   (  5, 43,  5)  (  5, 39,  1)  (  5, 42,  1)  (  5, 39,  1)  (  5, 36,  1)
  0 -0.2270E-01  0  0.1922E-01  0 -0.1108E-01  0  0.1046E-01  0  0.7956E-02
   (  5, 34,  2)  (  5, 31,  2)  (  5, 29,  2)  (  5, 39,  5)  (  5, 40,  5)
  0 -0.5423E-02  0  0.3993E-02  0  0.2963E-02  0 -0.2105E-02  0  0.2072E-02
   (  5, 39,  1)  (  5, 35,  5)  (  5, 42,  6)  (  5, 37,  8)  (  5, 35,  8)
  0 -0.1421E-02  0  0.8326E-03  0 -0.7360E-03  0  0.5142E-03  0  0.5355E-03
   (  5, 32,  8)  (  5, 30,  8)  (  5, 13,  1)  (  5, 36,  1)  (  5, 13,  1)
  0 -0.3431E-03  0  0.2310E-03  0 -0.2221E-03  0  0.1474E-03  0 -0.9183E-04
   (  5, 12,  1)  (  5, 36,  3)  (  5, 36,  1)  (  5, 39,  1)  (  5, 12,  2)
  0 -0.8144E-04  0  0.6262E-04  0 -0.4618E-04  0 -0.2999E-04  0 -0.2226E-04
   (  5, 38,  1)  (  5, 40,  2)  (  5, 38,  1)  (  5, 15,  1)  (  5, 39,  1)
  1  0.1416E-03  0  0.1219E-03  0  0.1412E-03  0 -0.9228E-04  0  0.7980E-04
   (  3, 20,  2)  (  3, 19,  4)  (  5, 30,  1)  (  5, 30,  1)  (  5, 37,  1)
  0 -0.7271E-04  0  0.4305E-04  0  0.2633E-04  0 -0.1643E-04  0  0.1575E-04
   (  5, 37,  1)  (  5, 35,  1)  (  5, 40,  1)  (  5, 32, 10)  (  5, 13,  1)
  0 -0.1232E-04  0  0.1039E-04  0  0.8033E-05  0 -0.6557E-05  0  0.5038E-05
   (  5, 13,  1)  (  5, 32, 11)  (  5, 15,  1)  (  5, 14,  1)  (  5, 14,  2)
  0 -0.3328E-05  0  0.2070E-05  0 -0.1669E-05  0  0.1621E-05  0 -0.9194E-06
   (  5, 13,  2)  (  5, 34,  4)  (  5, 32,  1)  (  5, 29,  1)  (  5, 30,  8)
  1  0.6928E-06
   (  5, 39,  1)

 MAXIMUM RESIDUAL FOR EACH ITERATION (1 INDICATES THE FIRST INNER ITERATION):

    RESIDUAL       RESIDUAL       RESIDUAL       RESIDUAL       RESIDUAL    
   LAYER,ROW,COL  LAYER,ROW,COL  LAYER,ROW,COL  LAYER,ROW,COL  LAYER,ROW,COL
 ---------------------------------------------------------------------------
  1  0.3397E-03  0  0.2906E-03  0  0.2278E-03  0  0.1743E-03  0  0.1393E-03
   (  4, 35, 35)  (  4, 35, 35)  (  4, 35, 35)  (  3, 40, 27)  (  3, 40, 27)
  0  0.1129E-03  0 -0.9599E-04  0 -0.8242E-04  0 -0.6659E-04  0 -0.5148E-04
   (  3, 40, 27)  (  4, 43,  4)  (  4, 43,  4)  (  4, 43,  4)  (  4, 43,  4)
  0 -0.3852E-04  0 -0.2922E-04  0 -0.2233E-04  0 -0.1660E-04  0 -0.1214E-04
   (  4, 43,  4)  (  4, 44,  2)  (  4, 44,  2)  (  4, 44,  2)  (  4, 44,  2)
  0 -0.8603E-05  0 -0.6647E-05  0 -0.5340E-05  0 -0.4705E-05  0 -0.3642E-05
   (  4, 34, 35)  (  4, 34, 35)  (  4, 34, 35)  (  4, 34, 35)  (  4, 34, 35)
  0 -0.2680E-05  0 -0.2222E-05  0 -0.1736E-05  0 -0.1231E-05  0 -0.8545E-06
   (  4, 34, 35)  (  4, 34, 35)  (  4, 34, 35)  (  4, 34, 35)  (  4, 34, 35)
  0  0.6498E-06  0  0.5421E-06  0  0.4131E-06  0  0.2855E-06  0  0.1957E-06
   (  4, 35, 35)  (  4, 35, 35)  (  4, 35, 35)  (  4, 35, 35)  (  4, 35, 35)
  1 -0.7850E-06  0 -0.5776E-06  0 -0.3945E-06  0 -0.2711E-06  0 -0.1465E-06
   (  3, 20,  2)  (  3, 20,  2)  (  3, 20,  2)  (  3, 20,  2)  (  3, 20,  2)
  0 -0.1048E-06  0 -0.9752E-07  0 -0.8565E-07  0 -0.7126E-07  0 -0.5221E-07
   (  4, 39,  1)  (  4, 40,  1)  (  4, 41,  1)  (  3, 44,  5)  (  3, 44,  5)
  0 -0.5322E-07  0  0.3487E-07  0  0.2820E-07  0  0.2273E-07  0  0.1459E-07
   (  4, 19,  2)  (  4, 43,  2)  (  4, 43,  2)  (  4, 43,  2)  (  4, 43,  2)
  0  0.1046E-07  0  0.8402E-08  0  0.7499E-08  0 -0.4746E-08  0 -0.3841E-08
   (  4, 44,  2)  (  3, 44,  5)  (  3, 44,  5)  (  4, 42,  2)  (  4, 42,  2)
  1 -0.3529E-08
   (  4, 42,  2)



 OUTPUT CONTROL FOR STRESS PERIOD   23   TIME STEP    3
    SAVE HEAD FOR ALL LAYERS
    SAVE DRAWDOWN FOR ALL LAYERS
    SAVE BUDGET
    PRINT BUDGET
 UBDSV1 SAVING "         STORAGE" ON UNIT   9 AT TIME STEP  3, STRESS PERIOD  23
 UBDSV2 SAVING "   CONSTANT HEAD" ON UNIT   9 AT TIME STEP  3, STRESS PERIOD  23
 UBDSV1 SAVING "FLOW RIGHT FACE " ON UNIT   9 AT TIME STEP  3, STRESS PERIOD  23
 UBDSV1 SAVING "FLOW FRONT FACE " ON UNIT   9 AT TIME STEP  3, STRESS PERIOD  23
 UBDSV1 SAVING "FLOW LOWER FACE " ON UNIT   9 AT TIME STEP  3, STRESS PERIOD  23
 UBDSV3 SAVING "        RECHARGE" ON UNIT   9 AT TIME STEP  3, STRESS PERIOD  23

 HEAD WILL BE SAVED ON UNIT   37 AT END OF TIME STEP    3, STRESS PERIOD   23

 DRAWDOWN WILL BE SAVED ON UNIT   38 AT END OF TIME STEP    3, STRESS PERIOD   23
1
  VOLUMETRIC BUDGET FOR ENTIRE MODEL AT END OF TIME STEP    3, STRESS PERIOD  23
  ------------------------------------------------------------------------------

     CUMULATIVE VOLUMES      L**3       RATES FOR THIS TIME STEP      L**3/T
     ------------------                 ------------------------

           IN:                                      IN:
           ---                                      ---
             STORAGE =        6705.2666               STORAGE =       1.4105E-03
       CONSTANT HEAD =        6338.7920         CONSTANT HEAD =       2.3208E-03
            RECHARGE =         300.0140              RECHARGE =       1.0213E-04

            TOTAL IN =       13344.0723              TOTAL IN =       3.8334E-03

          OUT:                                     OUT:
          ----                                     ----
             STORAGE =         681.0461               STORAGE =           0.0000
       CONSTANT HEAD =       12663.3613         CONSTANT HEAD =       3.8335E-03
            RECHARGE =           0.0000              RECHARGE =           0.0000

           TOTAL OUT =       13344.4072             TOTAL OUT =       3.8335E-03

            IN - OUT =          -0.3350              IN - OUT =      -9.4296E-08

 PERCENT DISCREPANCY =          -0.00     PERCENT DISCREPANCY =          -0.00






         TIME SUMMARY AT END OF TIME STEP    3 IN STRESS PERIOD   23
                    SECONDS     MINUTES      HOURS       DAYS        YEARS
                    -----------------------------------------------------------
   TIME STEP LENGTH  86400.      1440.0      24.000      1.0000     2.73785E-03
 STRESS PERIOD TIME 2.59200E+05  4320.0      72.000      3.0000     8.21355E-03
         TOTAL TIME 2.93760E+06  48960.      816.00      34.000     9.30869E-02
1

 SOLVING FOR HEAD 
     3 CALLS TO PCG ROUTINE FOR TIME STEP   4 IN STRESS PERIOD   23
    51 TOTAL ITERATIONS

 MAXIMUM HEAD CHANGE FOR EACH ITERATION (1 INDICATES THE FIRST INNER ITERATION):

    HEAD CHANGE    HEAD CHANGE    HEAD CHANGE    HEAD CHANGE    HEAD CHANGE 
   LAYER,ROW,COL  LAYER,ROW,COL  LAYER,ROW,COL  LAYER,ROW,COL  LAYER,ROW,COL
 ---------------------------------------------------------------------------
  1 -0.1219      0  0.7024E-01  0 -0.4480E-01  0 -0.4357E-01  0  0.2992E-01
   (  5, 43,  5)  (  5, 39,  1)  (  5, 36,  1)  (  5, 39,  1)  (  5, 36,  1)
  0  0.1699E-01  0  0.1495E-01  0 -0.1201E-01  0  0.9333E-02  0 -0.6838E-02
   (  5, 38,  1)  (  5, 39,  1)  (  5, 37,  1)  (  5, 40,  5)  (  5, 35,  4)
  0  0.6154E-02  0  0.3852E-02  0  0.2968E-02  0 -0.1961E-02  0  0.2045E-02
   (  5, 35,  1)  (  5, 35,  5)  (  5, 42,  6)  (  5, 37,  8)  (  5, 35,  8)
  0 -0.1389E-02  0  0.8675E-03  0  0.6952E-03  0 -0.4388E-03  0  0.4190E-03
   (  5, 33,  8)  (  5, 30,  8)  (  5, 36,  1)  (  5, 37,  3)  (  5, 37,  1)
  0  0.3116E-03  0 -0.2408E-03  0  0.1633E-03  0  0.1448E-03  0 -0.1174E-03
   (  5, 14,  1)  (  5, 35,  1)  (  5, 37,  4)  (  5, 13,  1)  (  5, 12,  1)
  0  0.6641E-04  0 -0.7898E-04  0 -0.4829E-04  0  0.3639E-04  0  0.1974E-04
   (  5, 40,  2)  (  5, 38,  1)  (  5, 13,  2)  (  5, 13,  2)  (  5, 33,  6)
  1  0.1161E-03  0 -0.5374E-04  0  0.1133E-03  0  0.6143E-04  0  0.4805E-04
   (  5, 21,  1)  (  5, 36,  1)  (  5, 30,  1)  (  5, 22,  2)  (  5, 35,  1)
  0 -0.4550E-04  0  0.4183E-04  0 -0.3705E-04  0  0.2470E-04  0  0.1473E-04
   (  5, 36,  2)  (  5, 36,  1)  (  5, 38,  1)  (  5, 40,  1)  (  5, 16,  1)
  0 -0.9849E-05  0  0.7117E-05  0 -0.7399E-05  0 -0.5155E-05  0  0.3537E-05
   (  5, 14,  1)  (  5, 32, 10)  (  5, 40,  1)  (  5, 31,  9)  (  5, 13,  1)
  0  0.2558E-05  0 -0.2700E-05  0  0.1598E-05  0 -0.1295E-05  0  0.9308E-06
   (  5, 35,  1)  (  5, 31,  1)  (  5, 13,  1)  (  5, 13,  1)  (  5, 40,  1)
  1  0.5064E-06
   (  5, 37,  2)

 MAXIMUM RESIDUAL FOR EACH ITERATION (1 INDICATES THE FIRST INNER ITERATION):

    RESIDUAL       RESIDUAL       RESIDUAL       RESIDUAL       RESIDUAL    
   LAYER,ROW,COL  LAYER,ROW,COL  LAYER,ROW,COL  LAYER,ROW,COL  LAYER,ROW,COL
 ---------------------------------------------------------------------------
  1  0.3394E-03  0  0.2903E-03  0  0.2269E-03  0  0.1730E-03  0  0.1361E-03
   (  4, 35, 35)  (  4, 35, 35)  (  4, 35, 35)  (  3, 40, 27)  (  3, 40, 27)
  0 -0.1052E-03  0 -0.8855E-04  0 -0.7073E-04  0 -0.5703E-04  0 -0.4886E-04
   (  4, 43,  5)  (  4, 43,  4)  (  4, 43,  4)  (  4, 43,  4)  (  4, 43,  4)
  0 -0.3778E-04  0 -0.2871E-04  0 -0.2190E-04  0 -0.1617E-04  0 -0.1177E-04
   (  4, 43,  4)  (  4, 44,  2)  (  4, 44,  2)  (  4, 44,  2)  (  4, 44,  2)
  0 -0.8419E-05  0 -0.6458E-05  0 -0.5023E-05  0 -0.4287E-05  0 -0.3469E-05
   (  4, 34, 35)  (  4, 34, 35)  (  4, 34, 35)  (  4, 34, 35)  (  4, 34, 35)
  0 -0.2549E-05  0 -0.2199E-05  0 -0.1677E-05  0 -0.1168E-05  0 -0.8099E-06
   (  4, 34, 35)  (  4, 34, 35)  (  4, 34, 35)  (  4, 34, 35)  (  4, 34, 35)
  0  0.6373E-06  0  0.5204E-06  0  0.3921E-06  0  0.2693E-06  0  0.1773E-06
   (  4, 35, 35)  (  4, 35, 35)  (  4, 35, 35)  (  4, 35, 35)  (  4, 35, 35)
  1 -0.6180E-06  0 -0.4340E-06  0 -0.2402E-06  0 -0.1532E-06  0  0.1414E-06
   (  3, 42,  6)  (  3, 42,  6)  (  3, 18, 10)  (  3, 18, 10)  (  3, 43,  6)
  0 -0.1452E-06  0 -0.1354E-06  0 -0.1140E-06  0 -0.8589E-07  0 -0.5845E-07
   (  3, 44,  5)  (  3, 44,  5)  (  3, 44,  5)  (  3, 44,  5)  (  3, 44,  5)
  0  0.3888E-07  0  0.3012E-07  0  0.2506E-07  0 -0.2003E-07  0 -0.1535E-07
   (  4, 43,  2)  (  4, 43,  2)  (  4, 43,  2)  (  3, 43,  7)  (  3, 43,  7)
  0 -0.1221E-07  0  0.1100E-07  0  0.8352E-08  0  0.4881E-08  0 -0.2943E-08
   (  3, 43,  7)  (  3, 44,  5)  (  3, 44,  5)  (  3, 44,  5)  (  4, 42,  2)
  1 -0.2521E-08
   (  4, 42,  2)



 OUTPUT CONTROL FOR STRESS PERIOD   23   TIME STEP    4
    SAVE HEAD FOR ALL LAYERS
    SAVE DRAWDOWN FOR ALL LAYERS
    SAVE BUDGET
    PRINT BUDGET
 UBDSV1 SAVING "         STORAGE" ON UNIT   9 AT TIME STEP  4, STRESS PERIOD  23
 UBDSV2 SAVING "   CONSTANT HEAD" ON UNIT   9 AT TIME STEP  4, STRESS PERIOD  23
 UBDSV1 SAVING "FLOW RIGHT FACE " ON UNIT   9 AT TIME STEP  4, STRESS PERIOD  23
 UBDSV1 SAVING "FLOW FRONT FACE " ON UNIT   9 AT TIME STEP  4, STRESS PERIOD  23
 UBDSV1 SAVING "FLOW LOWER FACE " ON UNIT   9 AT TIME STEP  4, STRESS PERIOD  23
 UBDSV3 SAVING "        RECHARGE" ON UNIT   9 AT TIME STEP  4, STRESS PERIOD  23

 HEAD WILL BE SAVED ON UNIT   37 AT END OF TIME STEP    4, STRESS PERIOD   23

 DRAWDOWN WILL BE SAVED ON UNIT   38 AT END OF TIME STEP    4, STRESS PERIOD   23
1
  VOLUMETRIC BUDGET FOR ENTIRE MODEL AT END OF TIME STEP    4, STRESS PERIOD  23
  ------------------------------------------------------------------------------

     CUMULATIVE VOLUMES      L**3       RATES FOR THIS TIME STEP      L**3/T
     ------------------                 ------------------------

           IN:                                      IN:
           ---                                      ---
             STORAGE =        6830.4077               STORAGE =       1.4484E-03
       CONSTANT HEAD =        6549.4766         CONSTANT HEAD =       2.4385E-03
            RECHARGE =         308.8379              RECHARGE =       1.0213E-04

            TOTAL IN =       13688.7227              TOTAL IN =       3.9890E-03

          OUT:                                     OUT:
          ----                                     ----
             STORAGE =         681.0461               STORAGE =           0.0000
       CONSTANT HEAD =       13008.0195         CONSTANT HEAD =       3.9891E-03
            RECHARGE =           0.0000              RECHARGE =           0.0000

           TOTAL OUT =       13689.0654             TOTAL OUT =       3.9891E-03

            IN - OUT =          -0.3428              IN - OUT =      -1.0384E-07

 PERCENT DISCREPANCY =          -0.00     PERCENT DISCREPANCY =          -0.00






         TIME SUMMARY AT END OF TIME STEP    4 IN STRESS PERIOD   23
                    SECONDS     MINUTES      HOURS       DAYS        YEARS
                    -----------------------------------------------------------
   TIME STEP LENGTH  86400.      1440.0      24.000      1.0000     2.73785E-03
 STRESS PERIOD TIME 3.45600E+05  5760.0      96.000      4.0000     1.09514E-02
         TOTAL TIME 3.02400E+06  50400.      840.00      35.000     9.58248E-02
1
1
                            STRESS PERIOD NO.   24, LENGTH =   86400.00    
                            -----------------------------------------------

                              NUMBER OF TIME STEPS =     1

                               MULTIPLIER FOR DELT =     1.000

                            INITIAL TIME STEP SIZE =   86400.00    

 REUSING RECH FROM LAST STRESS PERIOD

 CHD NO.   LAYER   ROW   COL    START HEAD        END HEAD         IFACE           
 ----------------------------------------------------------------------------------
      1      4      3      1       109.3           109.3           0.000    
      2      5      3      1       109.3           109.3           0.000    
      3      4      3      2       109.3           109.3           0.000    
      4      5      3      2       109.3           109.3           0.000    
      5      4      3      3       109.3           109.3           0.000    
      6      5      3      3       109.3           109.3           0.000    
      7      4      3      4       109.3           109.3           0.000    
      8      5      3      4       109.3           109.3           0.000    
      9      4      3      5       109.3           109.3           0.000    
     10      5      3      5       109.3           109.3           0.000    
     11      4      3      6       109.3           109.3           0.000    
     12      5      3      6       109.3           109.3           0.000    
     13      4      3      7       109.3           109.3           0.000    
     14      5      3      7       109.3           109.3           0.000    
     15      4      3      8       109.3           109.3           0.000    
     16      5      3      8       109.3           109.3           0.000    
     17      4      2      8       109.3           109.3           0.000    
     18      5      2      8       109.3           109.3           0.000    
     19      4      2      9       109.3           109.3           0.000    
     20      5      2      9       109.3           109.3           0.000    
     21      4      2     10       109.3           109.3           0.000    
     22      5      2     10       109.3           109.3           0.000    
     23      4      2     11       109.3           109.3           0.000    
     24      5      2     11       109.3           109.3           0.000    
     25      4      2     12       109.3           109.3           0.000    
     26      5      2     12       109.3           109.3           0.000    
     27      4      2     13       109.3           109.3           0.000    
     28      5      2     13       109.3           109.3           0.000    
     29      4      2     14       109.3           109.3           0.000    
     30      5      2     14       109.3           109.3           0.000    
     31      4      2     15       109.3           109.3           0.000    
     32      5      2     15       109.3           109.3           0.000    
     33      4      2     16       109.3           109.3           0.000    
     34      5      2     16       109.3           109.3           0.000    
     35      4      2     17       109.3           109.3           0.000    
     36      5      2     17       109.3           109.3           0.000    
     37      4      2     18       109.3           109.3           0.000    
     38      5      2     18       109.3           109.3           0.000    
     39      4      2     19       109.3           109.3           0.000    
     40      5      2     19       109.3           109.3           0.000    
     41      4      2     20       109.3           109.3           0.000    
     42      5      2     20       109.3           109.3           0.000    
     43      4      2     21       109.3           109.3           0.000    
     44      5      2     21       109.3           109.3           0.000    
     45      4      2     22       109.3           109.3           0.000    
     46      5      2     22       109.3           109.3           0.000    
     47      4      2     23       109.3           109.3           0.000    
     48      5      2     23       109.3           109.3           0.000    
     49      4      2     24       109.3           109.3           0.000    
     50      5      2     24       109.3           109.3           0.000    
     51      4      2     25       109.3           109.3           0.000    
     52      5      2     25       109.3           109.3           0.000    
     53      4      2     26       109.3           109.3           0.000    
     54      5      2     26       109.3           109.3           0.000    
     55      4      1     26       109.3           109.3           0.000    
     56      5      1     26       109.3           109.3           0.000    
     57      4      1     27       109.3           109.3           0.000    
     58      5      1     27       109.3           109.3           0.000    
     59      4      1     28       109.3           109.3           0.000    
     60      5      1     28       109.3           109.3           0.000    
     61      4      1     29       109.3           109.3           0.000    
     62      5      1     29       109.3           109.3           0.000    
     63      4      1     30       109.3           109.3           0.000    
     64      5      1     30       109.3           109.3           0.000    
     65      4      1     31       109.3           109.3           0.000    
     66      5      1     31       109.3           109.3           0.000    
     67      4      1     32       109.3           109.3           0.000    
     68      5      1     32       109.3           109.3           0.000    
     69      4      1     33       109.3           109.3           0.000    
     70      5      1     33       109.3           109.3           0.000    
     71      4      1     34       109.3           109.3           0.000    
     72      5      1     34       109.3           109.3           0.000    
     73      4      1     35       109.3           109.3           0.000    
     74      5      1     35       109.3           109.3           0.000    
     75      4     36     35       109.0           109.1           0.000    
     76      5     36     35       109.0           109.1           0.000    
     77      4     35     34       109.0           109.1           0.000    
     78      5     35     34       109.0           109.1           0.000    
     79      4     36     34       109.0           109.1           0.000    
     80      5     36     34       109.0           109.1           0.000    
     81      4     36     33       109.0           109.1           0.000    
     82      5     36     33       109.0           109.1           0.000    
     83      4     36     32       109.0           109.1           0.000    
     84      5     36     32       109.0           109.1           0.000    
     85      4     37     32       109.0           109.1           0.000    
     86      5     37     32       109.0           109.1           0.000    
     87      4     37     31       109.0           109.1           0.000    
     88      5     37     31       109.0           109.1           0.000    
     89      4     38     31       109.0           109.1           0.000    
     90      5     38     31       109.0           109.1           0.000    
     91      4     38     30       109.0           109.1           0.000    
     92      5     38     30       109.0           109.1           0.000    
     93      4     39     30       109.0           109.1           0.000    
     94      5     39     30       109.0           109.1           0.000    
     95      4     39     29       109.0           109.1           0.000    
     96      5     39     29       109.0           109.1           0.000    
     97      4     40     29       109.0           109.1           0.000    
     98      5     40     29       109.0           109.1           0.000    
     99      4     40     28       109.0           109.1           0.000    
    100      5     40     28       109.0           109.1           0.000    
    101      4     40     27       109.0           109.1           0.000    
    102      5     40     27       109.0           109.1           0.000    
    103      4     41     27       109.0           109.1           0.000    
    104      5     41     27       109.0           109.1           0.000    
    105      4     41     26       109.0           109.1           0.000    
    106      5     41     26       109.0           109.1           0.000    
    107      4     41     25       109.0           109.1           0.000    
    108      5     41     25       109.0           109.1           0.000    
    109      4     41     24       109.0           109.1           0.000    
    110      5     41     24       109.0           109.1           0.000    
    111      4     41     23       109.0           109.1           0.000    
    112      5     41     23       109.0           109.1           0.000    
    113      4     41     22       109.0           109.1           0.000    
    114      5     41     22       109.0           109.1           0.000    
    115      4     42     22       109.0           109.1           0.000    
    116      5     42     22       109.0           109.1           0.000    
    117      4     42     21       109.0           109.1           0.000    
    118      5     42     21       109.0           109.1           0.000    
    119      4     42     20       109.0           109.1           0.000    
    120      5     42     20       109.0           109.1           0.000    
    121      4     42     19       109.0           109.1           0.000    
    122      5     42     19       109.0           109.1           0.000    
    123      4     43     18       109.0           109.1           0.000    
    124      5     43     18       109.0           109.1           0.000    
    125      4     42     18       109.0           109.1           0.000    
    126      5     42     18       109.0           109.1           0.000    
    127      4     42     17       109.0           109.1           0.000    
    128      5     42     17       109.0           109.1           0.000    
    129      4     42     16       109.0           109.1           0.000    
    130      5     42     16       109.0           109.1           0.000    
    131      4     42     15       109.0           109.1           0.000    
    132      5     42     15       109.0           109.1           0.000    
    133      4     43     15       109.0           109.1           0.000    
    134      5     43     15       109.0           109.1           0.000    
    135      4     43     14       109.0           109.1           0.000    
    136      5     43     14       109.0           109.1           0.000    
    137      4     43     13       109.0           109.1           0.000    
    138      5     43     13       109.0           109.1           0.000    
    139      4     43     12       109.0           109.1           0.000    
    140      5     43     12       109.0           109.1           0.000    
    141      4     43     11       109.0           109.1           0.000    
    142      5     43     11       109.0           109.1           0.000    
    143      4     43     10       109.0           109.1           0.000    
    144      5     43     10       109.0           109.1           0.000    
    145      4     44     10       109.0           109.1           0.000    
    146      5     44     10       109.0           109.1           0.000    
    147      4     44      9       109.0           109.1           0.000    
    148      5     44      9       109.0           109.1           0.000    
    149      4     44      8       109.0           109.1           0.000    
    150      5     44      8       109.0           109.1           0.000    
    151      4     44      7       109.0           109.1           0.000    
    152      5     44      7       109.0           109.1           0.000    
    153      4     44      6       109.0           109.1           0.000    
    154      5     44      6       109.0           109.1           0.000    
    155      4     44      5       109.0           109.1           0.000    
    156      5     44      5       109.0           109.1           0.000    
    157      4     44      4       109.0           109.1           0.000    
    158      5     44      4       109.0           109.1           0.000    
    159      4     44      3       109.0           109.1           0.000    
    160      5     44      3       109.0           109.1           0.000    
    161      4     45      3       109.0           109.1           0.000    
    162      5     45      3       109.0           109.1           0.000    
    163      4     45      2       109.0           109.1           0.000    
    164      5     45      2       109.0           109.1           0.000    
    165      4     45      1       109.0           109.1           0.000    
    166      5     45      1       109.0           109.1           0.000    


    166 TIME-VARIANT SPECIFIED-HEAD CELLS

 SOLVING FOR HEAD 


     3 CALLS TO PCG ROUTINE FOR TIME STEP   1 IN STRESS PERIOD   24
    54 TOTAL ITERATIONS

 MAXIMUM HEAD CHANGE FOR EACH ITERATION (1 INDICATES THE FIRST INNER ITERATION):

    HEAD CHANGE    HEAD CHANGE    HEAD CHANGE    HEAD CHANGE    HEAD CHANGE 
   LAYER,ROW,COL  LAYER,ROW,COL  LAYER,ROW,COL  LAYER,ROW,COL  LAYER,ROW,COL
 ---------------------------------------------------------------------------
  1  0.2676      0 -0.1178      0 -0.1043      0  0.1296      0 -0.9051E-01
   (  5, 43,  5)  (  5, 40,  1)  (  5, 42,  1)  (  5, 38,  1)  (  5, 35,  1)
  0  0.5421E-01  0  0.3754E-01  0 -0.2172E-01  0  0.2342E-01  0 -0.1651E-01
   (  5, 33,  2)  (  5, 41,  5)  (  5, 23,  3)  (  5, 37,  1)  (  5, 40,  5)
  0  0.1375E-01  0 -0.8196E-02  0 -0.6141E-02  0  0.5317E-02  0 -0.4179E-02
   (  5, 39,  1)  (  5, 42,  1)  (  5, 36,  5)  (  5, 41,  1)  (  5, 35,  8)
  0 -0.3160E-02  0  0.2231E-02  0 -0.1710E-02  0 -0.1104E-02  0  0.1157E-02
   (  5, 38,  4)  (  5, 31,  1)  (  5, 40,  1)  (  5, 16,  1)  (  5, 15,  1)
  0 -0.7719E-03  0  0.6465E-03  0  0.4218E-03  0 -0.3982E-03  0  0.3032E-03
   (  5, 14,  1)  (  5, 35,  1)  (  5, 13,  1)  (  5, 13,  1)  (  5, 12,  1)
  0  0.1767E-03  0 -0.1330E-03  0  0.1119E-03  0 -0.7629E-04  0  0.5838E-04
   (  5, 37,  1)  (  5, 40,  2)  (  5, 38,  1)  (  5, 36,  1)  (  5, 33,  1)
  1 -0.1928E-03  0  0.3029E-03  0  0.1737E-03  0  0.1829E-03  0 -0.1021E-03
   (  5, 31,  1)  (  5, 29,  1)  (  3, 43,  6)  (  5, 37,  1)  (  5, 35,  1)
  0 -0.6804E-04  0 -0.6680E-04  0  0.4730E-04  0  0.2988E-04  0 -0.2752E-04
   (  5, 26,  4)  (  5, 33,  4)  (  5, 12,  1)  (  5, 18,  3)  (  5, 13,  1)
  0  0.2090E-04  0  0.1525E-04  0 -0.1360E-04  0  0.1217E-04  0 -0.8780E-05
   (  5, 29, 10)  (  5, 34, 10)  (  5, 38,  1)  (  5, 40,  2)  (  5, 30,  1)
  0  0.6095E-05  0 -0.6911E-05  0 -0.3097E-05  0 -0.2046E-05  0  0.2301E-05
   (  5, 34,  2)  (  5, 33,  1)  (  5, 16,  1)  (  5, 36, 10)  (  5, 35,  6)
  0 -0.1478E-05  0  0.1173E-05  0 -0.8253E-06  1  0.7146E-06
   (  5, 37,  1)  (  5, 34,  1)  (  5, 37,  2)  (  5, 13,  1)

 MAXIMUM RESIDUAL FOR EACH ITERATION (1 INDICATES THE FIRST INNER ITERATION):

    RESIDUAL       RESIDUAL       RESIDUAL       RESIDUAL       RESIDUAL    
   LAYER,ROW,COL  LAYER,ROW,COL  LAYER,ROW,COL  LAYER,ROW,COL  LAYER,ROW,COL
 ---------------------------------------------------------------------------
  1 -0.1025E-02  0 -0.7820E-03  0 -0.6374E-03  0 -0.5246E-03  0 -0.4424E-03
   (  4, 44,  2)  (  4, 35, 35)  (  4, 35, 35)  (  3, 40, 27)  (  3, 40, 27)
  0 -0.3565E-03  0 -0.2712E-03  0 -0.2141E-03  0 -0.1649E-03  0  0.1248E-03
   (  3, 40, 27)  (  3, 40, 27)  (  3, 40, 27)  (  4, 35, 35)  (  3, 35, 35)
  0  0.9419E-04  0  0.6793E-04  0  0.4968E-04  0  0.3970E-04  0  0.3184E-04
   (  3, 35, 35)  (  3, 35, 35)  (  4, 34, 35)  (  4, 34, 35)  (  4, 34, 35)
  0  0.2530E-04  0  0.2289E-04  0  0.1780E-04  0  0.1362E-04  0  0.1066E-04
   (  4, 34, 35)  (  4, 34, 35)  (  4, 34, 35)  (  4, 34, 35)  (  4, 34, 35)
  0  0.8148E-05  0  0.6897E-05  0  0.5271E-05  0  0.3685E-05  0  0.2662E-05
   (  4, 34, 35)  (  4, 34, 35)  (  4, 34, 35)  (  4, 34, 35)  (  4, 34, 35)
  0  0.1909E-05  0  0.1533E-05  0 -0.1107E-05  0 -0.8208E-06  0 -0.7259E-06
   (  4, 34, 35)  (  4, 34, 35)  (  4, 35, 35)  (  4, 35, 35)  (  4, 35, 35)
  1 -0.2102E-05  0 -0.1038E-05  0 -0.6231E-06  0 -0.6361E-06  0 -0.5534E-06
   (  3, 43,  6)  (  3, 38,  7)  (  4, 43,  5)  (  4, 43,  5)  (  4, 43,  5)
  0 -0.4385E-06  0  0.3642E-06  0  0.2561E-06  0 -0.1803E-06  0 -0.1591E-06
   (  4, 43,  5)  (  3, 43,  6)  (  3, 43,  6)  (  4, 44,  1)  (  4, 44,  1)
  0 -0.1328E-06  0 -0.1097E-06  0 -0.8109E-07  0 -0.6382E-07  0 -0.4347E-07
   (  4, 44,  1)  (  4, 44,  1)  (  4, 44,  1)  (  3, 43,  7)  (  3, 43,  7)
  0 -0.3528E-07  0 -0.2863E-07  0 -0.2212E-07  0  0.1668E-07  0  0.1145E-07
   (  3, 43,  7)  (  4, 41,  2)  (  4, 41,  2)  (  4, 44,  2)  (  4, 44,  2)
  0  0.7809E-08  0  0.6208E-08  0 -0.5451E-08  1 -0.5025E-08
   (  4, 44,  2)  (  4, 44,  2)  (  4, 43,  6)  (  4, 43,  6)



 OUTPUT CONTROL FOR STRESS PERIOD   24   TIME STEP    1
    SAVE HEAD FOR ALL LAYERS
    SAVE DRAWDOWN FOR ALL LAYERS
    SAVE BUDGET
    PRINT BUDGET
 UBDSV1 SAVING "         STORAGE" ON UNIT   9 AT TIME STEP  1, STRESS PERIOD  24
 UBDSV2 SAVING "   CONSTANT HEAD" ON UNIT   9 AT TIME STEP  1, STRESS PERIOD  24
 UBDSV1 SAVING "FLOW RIGHT FACE " ON UNIT   9 AT TIME STEP  1, STRESS PERIOD  24
 UBDSV1 SAVING "FLOW FRONT FACE " ON UNIT   9 AT TIME STEP  1, STRESS PERIOD  24
 UBDSV1 SAVING "FLOW LOWER FACE " ON UNIT   9 AT TIME STEP  1, STRESS PERIOD  24
 UBDSV3 SAVING "        RECHARGE" ON UNIT   9 AT TIME STEP  1, STRESS PERIOD  24

 HEAD WILL BE SAVED ON UNIT   37 AT END OF TIME STEP    1, STRESS PERIOD   24

 DRAWDOWN WILL BE SAVED ON UNIT   38 AT END OF TIME STEP    1, STRESS PERIOD   24
1
  VOLUMETRIC BUDGET FOR ENTIRE MODEL AT END OF TIME STEP    1, STRESS PERIOD  24
  ------------------------------------------------------------------------------

     CUMULATIVE VOLUMES      L**3       RATES FOR THIS TIME STEP      L**3/T
     ------------------                 ------------------------

           IN:                                      IN:
           ---                                      ---
             STORAGE =        6839.2891               STORAGE =       1.0279E-04
       CONSTANT HEAD =        6728.3667         CONSTANT HEAD =       2.0705E-03
            RECHARGE =         317.6619              RECHARGE =       1.0213E-04

            TOTAL IN =       13885.3184              TOTAL IN =       2.2754E-03

          OUT:                                     OUT:
          ----                                     ----
             STORAGE =         791.5463               STORAGE =       1.2789E-03
       CONSTANT HEAD =       13094.1230         CONSTANT HEAD =       9.9657E-04
            RECHARGE =           0.0000              RECHARGE =           0.0000

           TOTAL OUT =       13885.6689             TOTAL OUT =       2.2755E-03

            IN - OUT =          -0.3506              IN - OUT =      -9.8720E-08

 PERCENT DISCREPANCY =          -0.00     PERCENT DISCREPANCY =          -0.00






         TIME SUMMARY AT END OF TIME STEP    1 IN STRESS PERIOD   24
                    SECONDS     MINUTES      HOURS       DAYS        YEARS
                    -----------------------------------------------------------
   TIME STEP LENGTH  86400.      1440.0      24.000      1.0000     2.73785E-03
 STRESS PERIOD TIME  86400.      1440.0      24.000      1.0000     2.73785E-03
         TOTAL TIME 3.11040E+06  51840.      864.00      36.000     9.85626E-02
1
1
                            STRESS PERIOD NO.   25, LENGTH =   86400.00    
                            -----------------------------------------------

                              NUMBER OF TIME STEPS =     1

                               MULTIPLIER FOR DELT =     1.000

                            INITIAL TIME STEP SIZE =   86400.00    

 REUSING RECH FROM LAST STRESS PERIOD

 CHD NO.   LAYER   ROW   COL    START HEAD        END HEAD         IFACE           
 ----------------------------------------------------------------------------------
      1      4      3      1       109.3           109.4           0.000    
      2      5      3      1       109.3           109.4           0.000    
      3      4      3      2       109.3           109.4           0.000    
      4      5      3      2       109.3           109.4           0.000    
      5      4      3      3       109.3           109.4           0.000    
      6      5      3      3       109.3           109.4           0.000    
      7      4      3      4       109.3           109.4           0.000    
      8      5      3      4       109.3           109.4           0.000    
      9      4      3      5       109.3           109.4           0.000    
     10      5      3      5       109.3           109.4           0.000    
     11      4      3      6       109.3           109.4           0.000    
     12      5      3      6       109.3           109.4           0.000    
     13      4      3      7       109.3           109.4           0.000    
     14      5      3      7       109.3           109.4           0.000    
     15      4      3      8       109.3           109.4           0.000    
     16      5      3      8       109.3           109.4           0.000    
     17      4      2      8       109.3           109.4           0.000    
     18      5      2      8       109.3           109.4           0.000    
     19      4      2      9       109.3           109.4           0.000    
     20      5      2      9       109.3           109.4           0.000    
     21      4      2     10       109.3           109.4           0.000    
     22      5      2     10       109.3           109.4           0.000    
     23      4      2     11       109.3           109.4           0.000    
     24      5      2     11       109.3           109.4           0.000    
     25      4      2     12       109.3           109.4           0.000    
     26      5      2     12       109.3           109.4           0.000    
     27      4      2     13       109.3           109.4           0.000    
     28      5      2     13       109.3           109.4           0.000    
     29      4      2     14       109.3           109.4           0.000    
     30      5      2     14       109.3           109.4           0.000    
     31      4      2     15       109.3           109.4           0.000    
     32      5      2     15       109.3           109.4           0.000    
     33      4      2     16       109.3           109.4           0.000    
     34      5      2     16       109.3           109.4           0.000    
     35      4      2     17       109.3           109.4           0.000    
     36      5      2     17       109.3           109.4           0.000    
     37      4      2     18       109.3           109.4           0.000    
     38      5      2     18       109.3           109.4           0.000    
     39      4      2     19       109.3           109.4           0.000    
     40      5      2     19       109.3           109.4           0.000    
     41      4      2     20       109.3           109.4           0.000    
     42      5      2     20       109.3           109.4           0.000    
     43      4      2     21       109.3           109.4           0.000    
     44      5      2     21       109.3           109.4           0.000    
     45      4      2     22       109.3           109.4           0.000    
     46      5      2     22       109.3           109.4           0.000    
     47      4      2     23       109.3           109.4           0.000    
     48      5      2     23       109.3           109.4           0.000    
     49      4      2     24       109.3           109.4           0.000    
     50      5      2     24       109.3           109.4           0.000    
     51      4      2     25       109.3           109.4           0.000    
     52      5      2     25       109.3           109.4           0.000    
     53      4      2     26       109.3           109.4           0.000    
     54      5      2     26       109.3           109.4           0.000    
     55      4      1     26       109.3           109.4           0.000    
     56      5      1     26       109.3           109.4           0.000    
     57      4      1     27       109.3           109.4           0.000    
     58      5      1     27       109.3           109.4           0.000    
     59      4      1     28       109.3           109.4           0.000    
     60      5      1     28       109.3           109.4           0.000    
     61      4      1     29       109.3           109.4           0.000    
     62      5      1     29       109.3           109.4           0.000    
     63      4      1     30       109.3           109.4           0.000    
     64      5      1     30       109.3           109.4           0.000    
     65      4      1     31       109.3           109.4           0.000    
     66      5      1     31       109.3           109.4           0.000    
     67      4      1     32       109.3           109.4           0.000    
     68      5      1     32       109.3           109.4           0.000    
     69      4      1     33       109.3           109.4           0.000    
     70      5      1     33       109.3           109.4           0.000    
     71      4      1     34       109.3           109.4           0.000    
     72      5      1     34       109.3           109.4           0.000    
     73      4      1     35       109.3           109.4           0.000    
     74      5      1     35       109.3           109.4           0.000    
     75      4     36     35       109.1           109.4           0.000    
     76      5     36     35       109.1           109.4           0.000    
     77      4     35     34       109.1           109.4           0.000    
     78      5     35     34       109.1           109.4           0.000    
     79      4     36     34       109.1           109.4           0.000    
     80      5     36     34       109.1           109.4           0.000    
     81      4     36     33       109.1           109.4           0.000    
     82      5     36     33       109.1           109.4           0.000    
     83      4     36     32       109.1           109.4           0.000    
     84      5     36     32       109.1           109.4           0.000    
     85      4     37     32       109.1           109.4           0.000    
     86      5     37     32       109.1           109.4           0.000    
     87      4     37     31       109.1           109.4           0.000    
     88      5     37     31       109.1           109.4           0.000    
     89      4     38     31       109.1           109.4           0.000    
     90      5     38     31       109.1           109.4           0.000    
     91      4     38     30       109.1           109.4           0.000    
     92      5     38     30       109.1           109.4           0.000    
     93      4     39     30       109.1           109.4           0.000    
     94      5     39     30       109.1           109.4           0.000    
     95      4     39     29       109.1           109.4           0.000    
     96      5     39     29       109.1           109.4           0.000    
     97      4     40     29       109.1           109.4           0.000    
     98      5     40     29       109.1           109.4           0.000    
     99      4     40     28       109.1           109.4           0.000    
    100      5     40     28       109.1           109.4           0.000    
    101      4     40     27       109.1           109.4           0.000    
    102      5     40     27       109.1           109.4           0.000    
    103      4     41     27       109.1           109.4           0.000    
    104      5     41     27       109.1           109.4           0.000    
    105      4     41     26       109.1           109.4           0.000    
    106      5     41     26       109.1           109.4           0.000    
    107      4     41     25       109.1           109.4           0.000    
    108      5     41     25       109.1           109.4           0.000    
    109      4     41     24       109.1           109.4           0.000    
    110      5     41     24       109.1           109.4           0.000    
    111      4     41     23       109.1           109.4           0.000    
    112      5     41     23       109.1           109.4           0.000    
    113      4     41     22       109.1           109.4           0.000    
    114      5     41     22       109.1           109.4           0.000    
    115      4     42     22       109.1           109.4           0.000    
    116      5     42     22       109.1           109.4           0.000    
    117      4     42     21       109.1           109.4           0.000    
    118      5     42     21       109.1           109.4           0.000    
    119      4     42     20       109.1           109.4           0.000    
    120      5     42     20       109.1           109.4           0.000    
    121      4     42     19       109.1           109.4           0.000    
    122      5     42     19       109.1           109.4           0.000    
    123      4     43     18       109.1           109.4           0.000    
    124      5     43     18       109.1           109.4           0.000    
    125      4     42     18       109.1           109.4           0.000    
    126      5     42     18       109.1           109.4           0.000    
    127      4     42     17       109.1           109.4           0.000    
    128      5     42     17       109.1           109.4           0.000    
    129      4     42     16       109.1           109.4           0.000    
    130      5     42     16       109.1           109.4           0.000    
    131      4     42     15       109.1           109.4           0.000    
    132      5     42     15       109.1           109.4           0.000    
    133      4     43     15       109.1           109.4           0.000    
    134      5     43     15       109.1           109.4           0.000    
    135      4     43     14       109.1           109.4           0.000    
    136      5     43     14       109.1           109.4           0.000    
    137      4     43     13       109.1           109.4           0.000    
    138      5     43     13       109.1           109.4           0.000    
    139      4     43     12       109.1           109.4           0.000    
    140      5     43     12       109.1           109.4           0.000    
    141      4     43     11       109.1           109.4           0.000    
    142      5     43     11       109.1           109.4           0.000    
    143      4     43     10       109.1           109.4           0.000    
    144      5     43     10       109.1           109.4           0.000    
    145      4     44     10       109.1           109.4           0.000    
    146      5     44     10       109.1           109.4           0.000    
    147      4     44      9       109.1           109.4           0.000    
    148      5     44      9       109.1           109.4           0.000    
    149      4     44      8       109.1           109.4           0.000    
    150      5     44      8       109.1           109.4           0.000    
    151      4     44      7       109.1           109.4           0.000    
    152      5     44      7       109.1           109.4           0.000    
    153      4     44      6       109.1           109.4           0.000    
    154      5     44      6       109.1           109.4           0.000    
    155      4     44      5       109.1           109.4           0.000    
    156      5     44      5       109.1           109.4           0.000    
    157      4     44      4       109.1           109.4           0.000    
    158      5     44      4       109.1           109.4           0.000    
    159      4     44      3       109.1           109.4           0.000    
    160      5     44      3       109.1           109.4           0.000    
    161      4     45      3       109.1           109.4           0.000    
    162      5     45      3       109.1           109.4           0.000    
    163      4     45      2       109.1           109.4           0.000    
    164      5     45      2       109.1           109.4           0.000    
    165      4     45      1       109.1           109.4           0.000    
    166      5     45      1       109.1           109.4           0.000    


    166 TIME-VARIANT SPECIFIED-HEAD CELLS

 SOLVING FOR HEAD 


     4 CALLS TO PCG ROUTINE FOR TIME STEP   1 IN STRESS PERIOD   25
    77 TOTAL ITERATIONS

 MAXIMUM HEAD CHANGE FOR EACH ITERATION (1 INDICATES THE FIRST INNER ITERATION):

    HEAD CHANGE    HEAD CHANGE    HEAD CHANGE    HEAD CHANGE    HEAD CHANGE 
   LAYER,ROW,COL  LAYER,ROW,COL  LAYER,ROW,COL  LAYER,ROW,COL  LAYER,ROW,COL
 ---------------------------------------------------------------------------
  1   1.011      0 -0.5007      0 -0.3704      0  0.4405      0 -0.3376    
   (  5, 43,  5)  (  5, 40,  1)  (  5, 42,  1)  (  5, 38,  1)  (  5, 35,  1)
  0  0.2116      0  0.1361      0 -0.8368E-01  0  0.9039E-01  0 -0.6426E-01
   (  5, 33,  2)  (  5, 41,  5)  (  5, 40,  1)  (  5, 37,  1)  (  5, 40,  5)
  0  0.5124E-01  0 -0.3143E-01  0 -0.2401E-01  0  0.1981E-01  0 -0.1782E-01
   (  5, 39,  1)  (  5, 42,  1)  (  5, 42,  6)  (  5, 37,  8)  (  5, 35,  8)
  0  0.9971E-02  0 -0.7659E-02  0  0.5872E-02  0 -0.5305E-02  0  0.3653E-02
   (  5, 42,  1)  (  5, 32,  3)  (  5, 32,  1)  (  5, 36,  1)  (  5, 38,  4)
  0 -0.2902E-02  0  0.2543E-02  0  0.1669E-02  0 -0.1355E-02  0  0.1129E-02
   (  5, 37,  1)  (  5, 40,  2)  (  5, 14,  1)  (  5, 13,  1)  (  5, 12,  1)
  0 -0.6321E-03  0  0.5855E-03  0 -0.3952E-03  0 -0.2554E-03  0 -0.1553E-03
   (  5, 13,  1)  (  5, 38,  1)  (  5, 36,  1)  (  5, 13,  2)  (  5, 41,  2)
  1  0.4426E-02  0 -0.4175E-02  0  0.5510E-02  0  0.2652E-02  0  0.2117E-02
   (  5, 39,  6)  (  5, 36,  1)  (  5, 32,  1)  (  5, 37,  1)  (  5, 33,  5)
  0 -0.1262E-02  0  0.1095E-02  0  0.1072E-02  0  0.6830E-03  0  0.5081E-03
   (  5, 23,  3)  (  5, 21,  1)  (  5, 33,  1)  (  5, 30,  5)  (  5, 34,  4)
  0 -0.5476E-03  0  0.5199E-03  0 -0.3322E-03  0  0.1779E-03  0 -0.1451E-03
   (  5, 37,  9)  (  5, 33,  9)  (  5, 30,  9)  (  5, 27,  6)  (  5, 36,  3)
  0  0.1771E-03  0 -0.9494E-04  0 -0.7242E-04  0 -0.4742E-04  0  0.4398E-04
   (  5, 36,  1)  (  5, 16,  1)  (  5, 34,  1)  (  5, 40,  2)  (  5, 38,  1)
  0  0.3270E-04  0 -0.2693E-04  0 -0.2006E-04  0  0.1261E-04  0  0.1039E-04
   (  5, 29,  3)  (  5, 32,  7)  (  5, 13,  1)  (  5, 14,  1)  (  5, 40,  2)
  0  0.8927E-05  0  0.8454E-05  0 -0.5199E-05  0  0.4718E-05  0 -0.3918E-05
   (  5, 33,  4)  (  5, 12,  1)  (  5, 12,  1)  (  5, 37,  3)  (  5, 35,  1)
  1  0.1830E-04  0 -0.2128E-04  0  0.3337E-04  0  0.1392E-04  0 -0.1150E-04
   (  5, 34,  2)  (  5, 37,  1)  (  5, 38,  1)  (  5, 29,  1)  (  5, 27,  1)
  0 -0.8542E-05  0 -0.5866E-05  0 -0.5373E-05  0 -0.4398E-05  0  0.2602E-05
   (  5, 34,  2)  (  5, 38,  3)  (  5, 32,  4)  (  5, 40,  1)  (  5, 32,  6)
  0  0.1879E-05  0  0.1536E-05  0  0.1908E-05  0 -0.1119E-05  0  0.1162E-05
   (  5, 35,  4)  (  5, 29,  9)  (  5, 35,  8)  (  5, 36,  1)  (  5, 34,  1)
  0  0.5979E-06  1  0.3858E-06
   (  5, 13,  2)  (  5, 24, 13)

 MAXIMUM RESIDUAL FOR EACH ITERATION (1 INDICATES THE FIRST INNER ITERATION):

    RESIDUAL       RESIDUAL       RESIDUAL       RESIDUAL       RESIDUAL    
   LAYER,ROW,COL  LAYER,ROW,COL  LAYER,ROW,COL  LAYER,ROW,COL  LAYER,ROW,COL
 ---------------------------------------------------------------------------
  1 -0.3468E-02  0 -0.2764E-02  0 -0.2231E-02  0 -0.1807E-02  0 -0.1534E-02
   (  4, 44,  2)  (  4, 35, 35)  (  4, 35, 35)  (  3, 40, 27)  (  3, 40, 27)
  0 -0.1233E-02  0 -0.9401E-03  0 -0.7383E-03  0  0.5808E-03  0  0.4566E-03
   (  3, 40, 27)  (  3, 40, 27)  (  3, 40, 27)  (  3, 35, 35)  (  3, 35, 35)
  0  0.3468E-03  0  0.2485E-03  0  0.1793E-03  0  0.1382E-03  0  0.1103E-03
   (  3, 35, 35)  (  3, 35, 35)  (  3, 41, 23)  (  4, 34, 35)  (  4, 34, 35)
  0  0.8474E-04  0  0.6856E-04  0  0.6110E-04  0  0.4732E-04  0  0.3690E-04
   (  4, 34, 35)  (  4, 34, 35)  (  4, 34, 35)  (  4, 34, 35)  (  4, 34, 35)
  0  0.3144E-04  0  0.2410E-04  0  0.1793E-04  0  0.1273E-04  0  0.9176E-05
   (  4, 34, 35)  (  4, 34, 35)  (  4, 34, 35)  (  4, 34, 35)  (  4, 34, 35)
  0  0.6429E-05  0 -0.5080E-05  0 -0.4113E-05  0 -0.2905E-05  0 -0.2006E-05
   (  4, 34, 35)  (  4, 35, 35)  (  4, 35, 35)  (  4, 35, 35)  (  4, 35, 35)
  1 -0.8142E-05  0 -0.6237E-05  0 -0.6060E-05  0 -0.7217E-05  0 -0.6612E-05
   (  3, 43,  5)  (  3, 39,  6)  (  4, 41,  1)  (  4, 41,  1)  (  4, 42,  1)
  0 -0.6422E-05  0 -0.6125E-05  0 -0.5205E-05  0 -0.4679E-05  0 -0.4166E-05
   (  4, 42,  1)  (  4, 42,  1)  (  4, 43,  1)  (  4, 43,  1)  (  4, 44,  1)
  0 -0.3455E-05  0 -0.2702E-05  0 -0.1905E-05  0 -0.1279E-05  0  0.1082E-05
   (  4, 44,  1)  (  4, 44,  1)  (  4, 44,  1)  (  4, 44,  1)  (  4, 44,  2)
  0  0.1035E-05  0  0.9358E-06  0  0.7301E-06  0  0.5705E-06  0  0.4343E-06
   (  4, 44,  2)  (  4, 44,  2)  (  4, 44,  2)  (  4, 44,  2)  (  4, 44,  2)
  0  0.3609E-06  0  0.2593E-06  0  0.1796E-06  0  0.1289E-06  0  0.9713E-07
   (  4, 44,  2)  (  4, 44,  2)  (  4, 44,  2)  (  4, 44,  2)  (  4, 44,  2)
  0  0.7130E-07  0  0.5079E-07  0  0.4145E-07  0  0.3402E-07  0  0.3012E-07
   (  4, 44,  2)  (  4, 43,  3)  (  4, 43,  3)  (  4, 43,  3)  (  4, 43,  3)
  1 -0.1256E-06  0 -0.7300E-07  0  0.4027E-07  0 -0.3649E-07  0 -0.3358E-07
   (  3, 34,  4)  (  3, 34,  4)  (  4, 34,  4)  (  4, 35,  1)  (  4, 36,  1)
  0  0.2029E-07  0  0.2074E-07  0  0.1950E-07  0  0.1723E-07  0  0.1387E-07
   (  3, 34,  3)  (  3, 34,  3)  (  3, 34,  3)  (  3, 34,  3)  (  3, 34,  3)
  0  0.9971E-08  0  0.6340E-08  0  0.4646E-08  0  0.3971E-08  0  0.3616E-08
   (  3, 34,  3)  (  3, 34,  3)  (  4, 43,  2)  (  4, 44,  2)  (  4, 44,  2)
  0  0.2632E-08  1  0.2396E-08
   (  4, 44,  2)  (  4, 44,  2)



 OUTPUT CONTROL FOR STRESS PERIOD   25   TIME STEP    1
    SAVE HEAD FOR ALL LAYERS
    SAVE DRAWDOWN FOR ALL LAYERS
    SAVE BUDGET
    PRINT BUDGET
 UBDSV1 SAVING "         STORAGE" ON UNIT   9 AT TIME STEP  1, STRESS PERIOD  25
 UBDSV2 SAVING "   CONSTANT HEAD" ON UNIT   9 AT TIME STEP  1, STRESS PERIOD  25
 UBDSV1 SAVING "FLOW RIGHT FACE " ON UNIT   9 AT TIME STEP  1, STRESS PERIOD  25
 UBDSV1 SAVING "FLOW FRONT FACE " ON UNIT   9 AT TIME STEP  1, STRESS PERIOD  25
 UBDSV1 SAVING "FLOW LOWER FACE " ON UNIT   9 AT TIME STEP  1, STRESS PERIOD  25
 UBDSV3 SAVING "        RECHARGE" ON UNIT   9 AT TIME STEP  1, STRESS PERIOD  25

 HEAD WILL BE SAVED ON UNIT   37 AT END OF TIME STEP    1, STRESS PERIOD   25

 DRAWDOWN WILL BE SAVED ON UNIT   38 AT END OF TIME STEP    1, STRESS PERIOD   25
1
  VOLUMETRIC BUDGET FOR ENTIRE MODEL AT END OF TIME STEP    1, STRESS PERIOD  25
  ------------------------------------------------------------------------------

     CUMULATIVE VOLUMES      L**3       RATES FOR THIS TIME STEP      L**3/T
     ------------------                 ------------------------

           IN:                                      IN:
           ---                                      ---
             STORAGE =        6839.2891               STORAGE =           0.0000
       CONSTANT HEAD =        7417.6895         CONSTANT HEAD =       7.9783E-03
            RECHARGE =         326.4858              RECHARGE =       1.0213E-04

            TOTAL IN =       14583.4639              TOTAL IN =       8.0804E-03

          OUT:                                     OUT:
          ----                                     ----
             STORAGE =        1489.7019               STORAGE =       8.0805E-03
       CONSTANT HEAD =       13094.1230         CONSTANT HEAD =           0.0000
            RECHARGE =           0.0000              RECHARGE =           0.0000

           TOTAL OUT =       14583.8252             TOTAL OUT =       8.0805E-03

            IN - OUT =          -0.3613              IN - OUT =      -1.0524E-07

 PERCENT DISCREPANCY =          -0.00     PERCENT DISCREPANCY =          -0.00






         TIME SUMMARY AT END OF TIME STEP    1 IN STRESS PERIOD   25
                    SECONDS     MINUTES      HOURS       DAYS        YEARS
                    -----------------------------------------------------------
   TIME STEP LENGTH  86400.      1440.0      24.000      1.0000     2.73785E-03
 STRESS PERIOD TIME  86400.      1440.0      24.000      1.0000     2.73785E-03
         TOTAL TIME 3.19680E+06  53280.      888.00      37.000     0.10130    
1
1
                            STRESS PERIOD NO.   26, LENGTH =   86400.00    
                            -----------------------------------------------

                              NUMBER OF TIME STEPS =     1

                               MULTIPLIER FOR DELT =     1.000

                            INITIAL TIME STEP SIZE =   86400.00    

 REUSING RECH FROM LAST STRESS PERIOD

 CHD NO.   LAYER   ROW   COL    START HEAD        END HEAD         IFACE           
 ----------------------------------------------------------------------------------
      1      4      3      1       109.4           109.6           0.000    
      2      5      3      1       109.4           109.6           0.000    
      3      4      3      2       109.4           109.6           0.000    
      4      5      3      2       109.4           109.6           0.000    
      5      4      3      3       109.4           109.6           0.000    
      6      5      3      3       109.4           109.6           0.000    
      7      4      3      4       109.4           109.6           0.000    
      8      5      3      4       109.4           109.6           0.000    
      9      4      3      5       109.4           109.6           0.000    
     10      5      3      5       109.4           109.6           0.000    
     11      4      3      6       109.4           109.6           0.000    
     12      5      3      6       109.4           109.6           0.000    
     13      4      3      7       109.4           109.6           0.000    
     14      5      3      7       109.4           109.6           0.000    
     15      4      3      8       109.4           109.6           0.000    
     16      5      3      8       109.4           109.6           0.000    
     17      4      2      8       109.4           109.6           0.000    
     18      5      2      8       109.4           109.6           0.000    
     19      4      2      9       109.4           109.6           0.000    
     20      5      2      9       109.4           109.6           0.000    
     21      4      2     10       109.4           109.6           0.000    
     22      5      2     10       109.4           109.6           0.000    
     23      4      2     11       109.4           109.6           0.000    
     24      5      2     11       109.4           109.6           0.000    
     25      4      2     12       109.4           109.6           0.000    
     26      5      2     12       109.4           109.6           0.000    
     27      4      2     13       109.4           109.6           0.000    
     28      5      2     13       109.4           109.6           0.000    
     29      4      2     14       109.4           109.6           0.000    
     30      5      2     14       109.4           109.6           0.000    
     31      4      2     15       109.4           109.6           0.000    
     32      5      2     15       109.4           109.6           0.000    
     33      4      2     16       109.4           109.6           0.000    
     34      5      2     16       109.4           109.6           0.000    
     35      4      2     17       109.4           109.6           0.000    
     36      5      2     17       109.4           109.6           0.000    
     37      4      2     18       109.4           109.6           0.000    
     38      5      2     18       109.4           109.6           0.000    
     39      4      2     19       109.4           109.6           0.000    
     40      5      2     19       109.4           109.6           0.000    
     41      4      2     20       109.4           109.6           0.000    
     42      5      2     20       109.4           109.6           0.000    
     43      4      2     21       109.4           109.6           0.000    
     44      5      2     21       109.4           109.6           0.000    
     45      4      2     22       109.4           109.6           0.000    
     46      5      2     22       109.4           109.6           0.000    
     47      4      2     23       109.4           109.6           0.000    
     48      5      2     23       109.4           109.6           0.000    
     49      4      2     24       109.4           109.6           0.000    
     50      5      2     24       109.4           109.6           0.000    
     51      4      2     25       109.4           109.6           0.000    
     52      5      2     25       109.4           109.6           0.000    
     53      4      2     26       109.4           109.6           0.000    
     54      5      2     26       109.4           109.6           0.000    
     55      4      1     26       109.4           109.6           0.000    
     56      5      1     26       109.4           109.6           0.000    
     57      4      1     27       109.4           109.6           0.000    
     58      5      1     27       109.4           109.6           0.000    
     59      4      1     28       109.4           109.6           0.000    
     60      5      1     28       109.4           109.6           0.000    
     61      4      1     29       109.4           109.6           0.000    
     62      5      1     29       109.4           109.6           0.000    
     63      4      1     30       109.4           109.6           0.000    
     64      5      1     30       109.4           109.6           0.000    
     65      4      1     31       109.4           109.6           0.000    
     66      5      1     31       109.4           109.6           0.000    
     67      4      1     32       109.4           109.6           0.000    
     68      5      1     32       109.4           109.6           0.000    
     69      4      1     33       109.4           109.6           0.000    
     70      5      1     33       109.4           109.6           0.000    
     71      4      1     34       109.4           109.6           0.000    
     72      5      1     34       109.4           109.6           0.000    
     73      4      1     35       109.4           109.6           0.000    
     74      5      1     35       109.4           109.6           0.000    
     75      4     36     35       109.4           109.7           0.000    
     76      5     36     35       109.4           109.7           0.000    
     77      4     35     34       109.4           109.7           0.000    
     78      5     35     34       109.4           109.7           0.000    
     79      4     36     34       109.4           109.7           0.000    
     80      5     36     34       109.4           109.7           0.000    
     81      4     36     33       109.4           109.7           0.000    
     82      5     36     33       109.4           109.7           0.000    
     83      4     36     32       109.4           109.7           0.000    
     84      5     36     32       109.4           109.7           0.000    
     85      4     37     32       109.4           109.7           0.000    
     86      5     37     32       109.4           109.7           0.000    
     87      4     37     31       109.4           109.7           0.000    
     88      5     37     31       109.4           109.7           0.000    
     89      4     38     31       109.4           109.7           0.000    
     90      5     38     31       109.4           109.7           0.000    
     91      4     38     30       109.4           109.7           0.000    
     92      5     38     30       109.4           109.7           0.000    
     93      4     39     30       109.4           109.7           0.000    
     94      5     39     30       109.4           109.7           0.000    
     95      4     39     29       109.4           109.7           0.000    
     96      5     39     29       109.4           109.7           0.000    
     97      4     40     29       109.4           109.7           0.000    
     98      5     40     29       109.4           109.7           0.000    
     99      4     40     28       109.4           109.7           0.000    
    100      5     40     28       109.4           109.7           0.000    
    101      4     40     27       109.4           109.7           0.000    
    102      5     40     27       109.4           109.7           0.000    
    103      4     41     27       109.4           109.7           0.000    
    104      5     41     27       109.4           109.7           0.000    
    105      4     41     26       109.4           109.7           0.000    
    106      5     41     26       109.4           109.7           0.000    
    107      4     41     25       109.4           109.7           0.000    
    108      5     41     25       109.4           109.7           0.000    
    109      4     41     24       109.4           109.7           0.000    
    110      5     41     24       109.4           109.7           0.000    
    111      4     41     23       109.4           109.7           0.000    
    112      5     41     23       109.4           109.7           0.000    
    113      4     41     22       109.4           109.7           0.000    
    114      5     41     22       109.4           109.7           0.000    
    115      4     42     22       109.4           109.7           0.000    
    116      5     42     22       109.4           109.7           0.000    
    117      4     42     21       109.4           109.7           0.000    
    118      5     42     21       109.4           109.7           0.000    
    119      4     42     20       109.4           109.7           0.000    
    120      5     42     20       109.4           109.7           0.000    
    121      4     42     19       109.4           109.7           0.000    
    122      5     42     19       109.4           109.7           0.000    
    123      4     43     18       109.4           109.7           0.000    
    124      5     43     18       109.4           109.7           0.000    
    125      4     42     18       109.4           109.7           0.000    
    126      5     42     18       109.4           109.7           0.000    
    127      4     42     17       109.4           109.7           0.000    
    128      5     42     17       109.4           109.7           0.000    
    129      4     42     16       109.4           109.7           0.000    
    130      5     42     16       109.4           109.7           0.000    
    131      4     42     15       109.4           109.7           0.000    
    132      5     42     15       109.4           109.7           0.000    
    133      4     43     15       109.4           109.7           0.000    
    134      5     43     15       109.4           109.7           0.000    
    135      4     43     14       109.4           109.7           0.000    
    136      5     43     14       109.4           109.7           0.000    
    137      4     43     13       109.4           109.7           0.000    
    138      5     43     13       109.4           109.7           0.000    
    139      4     43     12       109.4           109.7           0.000    
    140      5     43     12       109.4           109.7           0.000    
    141      4     43     11       109.4           109.7           0.000    
    142      5     43     11       109.4           109.7           0.000    
    143      4     43     10       109.4           109.7           0.000    
    144      5     43     10       109.4           109.7           0.000    
    145      4     44     10       109.4           109.7           0.000    
    146      5     44     10       109.4           109.7           0.000    
    147      4     44      9       109.4           109.7           0.000    
    148      5     44      9       109.4           109.7           0.000    
    149      4     44      8       109.4           109.7           0.000    
    150      5     44      8       109.4           109.7           0.000    
    151      4     44      7       109.4           109.6           0.000    
    152      5     44      7       109.4           109.6           0.000    
    153      4     44      6       109.4           109.6           0.000    
    154      5     44      6       109.4           109.6           0.000    
    155      4     44      5       109.4           109.6           0.000    
    156      5     44      5       109.4           109.6           0.000    
    157      4     44      4       109.4           109.6           0.000    
    158      5     44      4       109.4           109.6           0.000    
    159      4     44      3       109.4           109.6           0.000    
    160      5     44      3       109.4           109.6           0.000    
    161      4     45      3       109.4           109.6           0.000    
    162      5     45      3       109.4           109.6           0.000    
    163      4     45      2       109.4           109.6           0.000    
    164      5     45      2       109.4           109.6           0.000    
    165      4     45      1       109.4           109.6           0.000    
    166      5     45      1       109.4           109.6           0.000    


    166 TIME-VARIANT SPECIFIED-HEAD CELLS

 SOLVING FOR HEAD 


     4 CALLS TO PCG ROUTINE FOR TIME STEP   1 IN STRESS PERIOD   26
    84 TOTAL ITERATIONS

 MAXIMUM HEAD CHANGE FOR EACH ITERATION (1 INDICATES THE FIRST INNER ITERATION):

    HEAD CHANGE    HEAD CHANGE    HEAD CHANGE    HEAD CHANGE    HEAD CHANGE 
   LAYER,ROW,COL  LAYER,ROW,COL  LAYER,ROW,COL  LAYER,ROW,COL  LAYER,ROW,COL
 ---------------------------------------------------------------------------
  1  0.8802      0 -0.6011      0  0.3586      0 -0.2316      0  0.2565    
   (  5, 43,  5)  (  5, 38,  1)  (  5, 34,  1)  (  5, 31,  2)  (  5, 40,  1)
  0 -0.1977      0  0.1221      0 -0.9577E-01  0 -0.9775E-01  0  0.6798E-01
   (  5, 37,  1)  (  5, 41,  6)  (  5, 39,  1)  (  5, 39,  5)  (  5, 37,  6)
  0  0.5062E-01  0 -0.3029E-01  0  0.3936E-01  0 -0.2841E-01  0  0.1983E-01
   (  5, 39,  1)  (  5, 39,  9)  (  5, 36,  8)  (  5, 33,  8)  (  5, 36,  1)
  0 -0.1387E-01  0 -0.9154E-02  0 -0.5465E-02  0 -0.4172E-02  0 -0.3566E-02
   (  5, 33,  1)  (  5, 36,  7)  (  5, 25, 12)  (  5, 15,  1)  (  5, 37,  1)
  0 -0.2818E-02  0 -0.2165E-02  0  0.1846E-02  0  0.1344E-02  0  0.1205E-02
   (  5, 28,  1)  (  5, 13,  1)  (  5, 13,  1)  (  5, 33,  3)  (  5, 37,  1)
  0 -0.9869E-03  0  0.6654E-03  0 -0.5058E-03  0  0.4124E-03  0 -0.3617E-03
   (  5, 39,  1)  (  5, 34,  2)  (  5, 39,  4)  (  5, 38,  1)  (  5, 40,  2)
  1  0.4285E-02  0  0.6469E-02  0  0.6708E-02  0  0.1051E-01  0  0.6052E-02
   (  5, 30,  4)  (  5, 29,  9)  (  5, 33,  2)  (  5, 27,  2)  (  5, 35,  1)
  0  0.5352E-02  0  0.5983E-02  0  0.3574E-02  0  0.3010E-02  0 -0.2250E-02
   (  5, 32,  3)  (  5, 38,  1)  (  5, 23,  1)  (  5, 35, 13)  (  5, 32, 11)
  0 -0.1799E-02  0  0.1389E-02  0 -0.1538E-02  0 -0.9171E-03  0  0.9196E-03
   (  5, 30,  2)  (  5, 35,  4)  (  5, 38,  6)  (  5, 40,  2)  (  5, 25,  5)
  0  0.5659E-03  0  0.7833E-03  0 -0.5033E-03  0  0.3469E-03  0 -0.1875E-03
   (  5, 33,  1)  (  5, 15,  1)  (  5, 33,  8)  (  5, 38,  9)  (  5, 31,  1)
  0  0.3512E-03  0  0.2125E-03  0  0.2178E-03  0  0.1606E-03  0 -0.1013E-03
   (  5, 27,  1)  (  5, 35,  1)  (  5, 34,  6)  (  5, 40,  6)  (  5, 39,  5)
  0 -0.9524E-04  0  0.5927E-04  0 -0.6066E-04  0 -0.4485E-04  0  0.3370E-04
   (  5, 14,  2)  (  5, 33,  2)  (  5, 36,  1)  (  5, 30,  2)  (  5, 33,  1)
  1 -0.3603E-04  0  0.4408E-04  0  0.4225E-04  0  0.4381E-04  0  0.6013E-04
   (  5, 32,  1)  (  5, 28,  1)  (  5, 36,  1)  (  5, 27,  4)  (  5, 13,  1)
  0 -0.3602E-04  0  0.2642E-04  0 -0.3330E-04  0  0.2022E-04  0 -0.1847E-04
   (  5, 14,  2)  (  5, 37,  1)  (  5, 39,  4)  (  5, 30,  4)  (  5, 40,  2)
  0 -0.9915E-05  0  0.1096E-04  0  0.8534E-05  0 -0.6377E-05  0  0.5062E-05
   (  5, 29,  3)  (  5, 41,  2)  (  5, 31,  9)  (  5, 28,  6)  (  5, 29,  9)
  0 -0.4078E-05  0  0.2572E-05  0  0.2633E-05  0 -0.3160E-05  0  0.1181E-05
   (  5, 35,  8)  (  5, 35,  2)  (  5, 14,  1)  (  5, 14,  1)  (  5, 29,  2)
  0  0.1527E-05  0  0.1205E-05  0 -0.8785E-06  1 -0.7842E-06
   (  5, 33, 10)  (  5, 27, 10)  (  5, 30,  2)  (  5, 37,  2)

 MAXIMUM RESIDUAL FOR EACH ITERATION (1 INDICATES THE FIRST INNER ITERATION):

    RESIDUAL       RESIDUAL       RESIDUAL       RESIDUAL       RESIDUAL    
   LAYER,ROW,COL  LAYER,ROW,COL  LAYER,ROW,COL  LAYER,ROW,COL  LAYER,ROW,COL
 ---------------------------------------------------------------------------
  1 -0.2940E-02  0 -0.2175E-02  0 -0.1855E-02  0 -0.1485E-02  0 -0.1184E-02
   (  4, 44,  2)  (  4, 35, 35)  (  4, 35, 35)  (  4, 35, 35)  (  3, 40, 27)
  0 -0.9441E-03  0  0.7769E-03  0  0.6542E-03  0  0.5356E-03  0  0.4302E-03
   (  3, 40, 27)  (  4, 43,  5)  (  4, 43,  4)  (  4, 43,  4)  (  4, 43,  4)
  0  0.3245E-03  0  0.2443E-03  0  0.1963E-03  0  0.1526E-03  0  0.1372E-03
   (  4, 43,  4)  (  4, 44,  2)  (  4, 44,  2)  (  4, 44,  2)  (  4, 44,  2)
  0  0.1058E-03  0  0.7324E-04  0  0.5269E-04  0  0.4156E-04  0  0.3603E-04
   (  4, 44,  2)  (  4, 44,  2)  (  4, 34, 35)  (  4, 34, 35)  (  4, 34, 35)
  0  0.2945E-04  0  0.2305E-04  0  0.1706E-04  0  0.1274E-04  0  0.1052E-04
   (  4, 34, 35)  (  4, 34, 35)  (  4, 34, 35)  (  4, 34, 35)  (  4, 34, 35)
  0  0.7100E-05  0  0.6414E-05  0 -0.4579E-05  0 -0.3515E-05  0 -0.2864E-05
   (  4, 34, 35)  (  4, 34, 35)  (  4, 35, 35)  (  4, 35, 35)  (  4, 35, 35)
  1 -0.8567E-05  0 -0.8508E-05  0 -0.9043E-05  0 -0.1610E-04  0 -0.1338E-04
   (  3, 33,  1)  (  3, 33,  1)  (  4, 34,  1)  (  4, 32,  1)  (  4, 34,  1)
  0 -0.1809E-04  0 -0.1224E-04  0 -0.1151E-04  0 -0.9675E-05  0 -0.8974E-05
   (  4, 34,  1)  (  4, 37,  1)  (  4, 37,  1)  (  4, 40,  1)  (  4, 41,  1)
  0 -0.7855E-05  0 -0.6983E-05  0 -0.5884E-05  0 -0.4584E-05  0 -0.3889E-05
   (  4, 42,  1)  (  4, 42,  1)  (  4, 43,  1)  (  4, 44,  1)  (  4, 44,  1)
  0 -0.3659E-05  0 -0.2840E-05  0  0.2183E-05  0  0.1966E-05  0  0.1948E-05
   (  4, 44,  1)  (  4, 44,  1)  (  4, 43,  2)  (  4, 44,  2)  (  4, 44,  2)
  0  0.1867E-05  0  0.1751E-05  0  0.1443E-05  0  0.1154E-05  0  0.7661E-06
   (  4, 44,  2)  (  4, 44,  2)  (  4, 44,  2)  (  4, 44,  2)  (  4, 44,  2)
  0  0.4886E-06  0 -0.4129E-06  0 -0.3549E-06  0 -0.3023E-06  0 -0.2984E-06
   (  4, 44,  2)  (  4, 42,  2)  (  4, 42,  2)  (  4, 42,  2)  (  4, 43,  2)
  1 -0.2777E-06  0 -0.2501E-06  0 -0.2253E-06  0 -0.1837E-06  0  0.1320E-06
   (  4, 43,  2)  (  4, 43,  2)  (  4, 43,  2)  (  4, 43,  2)  (  5, 14,  2)
  0 -0.1187E-06  0 -0.1327E-06  0 -0.1261E-06  0 -0.1084E-06  0 -0.7947E-07
   (  4, 40,  3)  (  4, 40,  3)  (  4, 41,  3)  (  4, 41,  3)  (  4, 41,  3)
  0 -0.6485E-07  0 -0.4840E-07  0  0.3679E-07  0  0.2596E-07  0 -0.1924E-07
   (  4, 41,  3)  (  4, 41,  3)  (  4, 42,  2)  (  4, 42,  2)  (  4, 43,  1)
  0  0.1622E-07  0  0.1533E-07  0  0.1203E-07  0  0.7996E-08  0  0.7229E-08
   (  4, 41,  4)  (  4, 41,  4)  (  4, 41,  4)  (  4, 41,  4)  (  4, 41,  4)
  0  0.5119E-08  0  0.4049E-08  0 -0.3789E-08  1 -0.3450E-08
   (  4, 39,  7)  (  4, 39,  7)  (  4, 40,  4)  (  4, 40,  4)



 OUTPUT CONTROL FOR STRESS PERIOD   26   TIME STEP    1
    SAVE HEAD FOR ALL LAYERS
    SAVE DRAWDOWN FOR ALL LAYERS
    SAVE BUDGET
    PRINT BUDGET
 UBDSV1 SAVING "         STORAGE" ON UNIT   9 AT TIME STEP  1, STRESS PERIOD  26
 UBDSV2 SAVING "   CONSTANT HEAD" ON UNIT   9 AT TIME STEP  1, STRESS PERIOD  26
 UBDSV1 SAVING "FLOW RIGHT FACE " ON UNIT   9 AT TIME STEP  1, STRESS PERIOD  26
 UBDSV1 SAVING "FLOW FRONT FACE " ON UNIT   9 AT TIME STEP  1, STRESS PERIOD  26
 UBDSV1 SAVING "FLOW LOWER FACE " ON UNIT   9 AT TIME STEP  1, STRESS PERIOD  26
 UBDSV3 SAVING "        RECHARGE" ON UNIT   9 AT TIME STEP  1, STRESS PERIOD  26

 HEAD WILL BE SAVED ON UNIT   37 AT END OF TIME STEP    1, STRESS PERIOD   26

 DRAWDOWN WILL BE SAVED ON UNIT   38 AT END OF TIME STEP    1, STRESS PERIOD   26
1
  VOLUMETRIC BUDGET FOR ENTIRE MODEL AT END OF TIME STEP    1, STRESS PERIOD  26
  ------------------------------------------------------------------------------

     CUMULATIVE VOLUMES      L**3       RATES FOR THIS TIME STEP      L**3/T
     ------------------                 ------------------------

           IN:                                      IN:
           ---                                      ---
             STORAGE =        6839.2891               STORAGE =           0.0000
       CONSTANT HEAD =        8139.6392         CONSTANT HEAD =       8.3559E-03
            RECHARGE =         335.3098              RECHARGE =       1.0213E-04

            TOTAL IN =       15314.2373              TOTAL IN =       8.4580E-03

          OUT:                                     OUT:
          ----                                     ----
             STORAGE =        2220.4817               STORAGE =       8.4581E-03
       CONSTANT HEAD =       13094.1230         CONSTANT HEAD =           0.0000
            RECHARGE =           0.0000              RECHARGE =           0.0000

           TOTAL OUT =       15314.6045             TOTAL OUT =       8.4581E-03

            IN - OUT =          -0.3672              IN - OUT =      -7.1712E-08

 PERCENT DISCREPANCY =          -0.00     PERCENT DISCREPANCY =          -0.00






         TIME SUMMARY AT END OF TIME STEP    1 IN STRESS PERIOD   26
                    SECONDS     MINUTES      HOURS       DAYS        YEARS
                    -----------------------------------------------------------
   TIME STEP LENGTH  86400.      1440.0      24.000      1.0000     2.73785E-03
 STRESS PERIOD TIME  86400.      1440.0      24.000      1.0000     2.73785E-03
         TOTAL TIME 3.28320E+06  54720.      912.00      38.000     0.10404    
1
1
                            STRESS PERIOD NO.   27, LENGTH =   86400.00    
                            -----------------------------------------------

                              NUMBER OF TIME STEPS =     1

                               MULTIPLIER FOR DELT =     1.000

                            INITIAL TIME STEP SIZE =   86400.00    

 REUSING RECH FROM LAST STRESS PERIOD

 CHD NO.   LAYER   ROW   COL    START HEAD        END HEAD         IFACE           
 ----------------------------------------------------------------------------------
      1      4      3      1       109.6           109.7           0.000    
      2      5      3      1       109.6           109.7           0.000    
      3      4      3      2       109.6           109.7           0.000    
      4      5      3      2       109.6           109.7           0.000    
      5      4      3      3       109.6           109.7           0.000    
      6      5      3      3       109.6           109.7           0.000    
      7      4      3      4       109.6           109.7           0.000    
      8      5      3      4       109.6           109.7           0.000    
      9      4      3      5       109.6           109.7           0.000    
     10      5      3      5       109.6           109.7           0.000    
     11      4      3      6       109.6           109.7           0.000    
     12      5      3      6       109.6           109.7           0.000    
     13      4      3      7       109.6           109.7           0.000    
     14      5      3      7       109.6           109.7           0.000    
     15      4      3      8       109.6           109.7           0.000    
     16      5      3      8       109.6           109.7           0.000    
     17      4      2      8       109.6           109.7           0.000    
     18      5      2      8       109.6           109.7           0.000    
     19      4      2      9       109.6           109.7           0.000    
     20      5      2      9       109.6           109.7           0.000    
     21      4      2     10       109.6           109.7           0.000    
     22      5      2     10       109.6           109.7           0.000    
     23      4      2     11       109.6           109.7           0.000    
     24      5      2     11       109.6           109.7           0.000    
     25      4      2     12       109.6           109.7           0.000    
     26      5      2     12       109.6           109.7           0.000    
     27      4      2     13       109.6           109.7           0.000    
     28      5      2     13       109.6           109.7           0.000    
     29      4      2     14       109.6           109.7           0.000    
     30      5      2     14       109.6           109.7           0.000    
     31      4      2     15       109.6           109.7           0.000    
     32      5      2     15       109.6           109.7           0.000    
     33      4      2     16       109.6           109.7           0.000    
     34      5      2     16       109.6           109.7           0.000    
     35      4      2     17       109.6           109.7           0.000    
     36      5      2     17       109.6           109.7           0.000    
     37      4      2     18       109.6           109.7           0.000    
     38      5      2     18       109.6           109.7           0.000    
     39      4      2     19       109.6           109.7           0.000    
     40      5      2     19       109.6           109.7           0.000    
     41      4      2     20       109.6           109.7           0.000    
     42      5      2     20       109.6           109.7           0.000    
     43      4      2     21       109.6           109.7           0.000    
     44      5      2     21       109.6           109.7           0.000    
     45      4      2     22       109.6           109.7           0.000    
     46      5      2     22       109.6           109.7           0.000    
     47      4      2     23       109.6           109.7           0.000    
     48      5      2     23       109.6           109.7           0.000    
     49      4      2     24       109.6           109.7           0.000    
     50      5      2     24       109.6           109.7           0.000    
     51      4      2     25       109.6           109.7           0.000    
     52      5      2     25       109.6           109.7           0.000    
     53      4      2     26       109.6           109.7           0.000    
     54      5      2     26       109.6           109.7           0.000    
     55      4      1     26       109.6           109.7           0.000    
     56      5      1     26       109.6           109.7           0.000    
     57      4      1     27       109.6           109.7           0.000    
     58      5      1     27       109.6           109.7           0.000    
     59      4      1     28       109.6           109.7           0.000    
     60      5      1     28       109.6           109.7           0.000    
     61      4      1     29       109.6           109.7           0.000    
     62      5      1     29       109.6           109.7           0.000    
     63      4      1     30       109.6           109.7           0.000    
     64      5      1     30       109.6           109.7           0.000    
     65      4      1     31       109.6           109.7           0.000    
     66      5      1     31       109.6           109.7           0.000    
     67      4      1     32       109.6           109.7           0.000    
     68      5      1     32       109.6           109.7           0.000    
     69      4      1     33       109.6           109.7           0.000    
     70      5      1     33       109.6           109.7           0.000    
     71      4      1     34       109.6           109.7           0.000    
     72      5      1     34       109.6           109.7           0.000    
     73      4      1     35       109.6           109.7           0.000    
     74      5      1     35       109.6           109.7           0.000    
     75      4     36     35       109.7           109.8           0.000    
     76      5     36     35       109.7           109.8           0.000    
     77      4     35     34       109.7           109.8           0.000    
     78      5     35     34       109.7           109.8           0.000    
     79      4     36     34       109.7           109.8           0.000    
     80      5     36     34       109.7           109.8           0.000    
     81      4     36     33       109.7           109.8           0.000    
     82      5     36     33       109.7           109.8           0.000    
     83      4     36     32       109.7           109.8           0.000    
     84      5     36     32       109.7           109.8           0.000    
     85      4     37     32       109.7           109.8           0.000    
     86      5     37     32       109.7           109.8           0.000    
     87      4     37     31       109.7           109.8           0.000    
     88      5     37     31       109.7           109.8           0.000    
     89      4     38     31       109.7           109.8           0.000    
     90      5     38     31       109.7           109.8           0.000    
     91      4     38     30       109.7           109.8           0.000    
     92      5     38     30       109.7           109.8           0.000    
     93      4     39     30       109.7           109.8           0.000    
     94      5     39     30       109.7           109.8           0.000    
     95      4     39     29       109.7           109.8           0.000    
     96      5     39     29       109.7           109.8           0.000    
     97      4     40     29       109.7           109.8           0.000    
     98      5     40     29       109.7           109.8           0.000    
     99      4     40     28       109.7           109.8           0.000    
    100      5     40     28       109.7           109.8           0.000    
    101      4     40     27       109.7           109.8           0.000    
    102      5     40     27       109.7           109.8           0.000    
    103      4     41     27       109.7           109.8           0.000    
    104      5     41     27       109.7           109.8           0.000    
    105      4     41     26       109.7           109.8           0.000    
    106      5     41     26       109.7           109.8           0.000    
    107      4     41     25       109.7           109.8           0.000    
    108      5     41     25       109.7           109.8           0.000    
    109      4     41     24       109.7           109.8           0.000    
    110      5     41     24       109.7           109.8           0.000    
    111      4     41     23       109.7           109.8           0.000    
    112      5     41     23       109.7           109.8           0.000    
    113      4     41     22       109.7           109.8           0.000    
    114      5     41     22       109.7           109.8           0.000    
    115      4     42     22       109.7           109.8           0.000    
    116      5     42     22       109.7           109.8           0.000    
    117      4     42     21       109.7           109.8           0.000    
    118      5     42     21       109.7           109.8           0.000    
    119      4     42     20       109.7           109.8           0.000    
    120      5     42     20       109.7           109.8           0.000    
    121      4     42     19       109.7           109.8           0.000    
    122      5     42     19       109.7           109.8           0.000    
    123      4     43     18       109.7           109.8           0.000    
    124      5     43     18       109.7           109.8           0.000    
    125      4     42     18       109.7           109.8           0.000    
    126      5     42     18       109.7           109.8           0.000    
    127      4     42     17       109.7           109.8           0.000    
    128      5     42     17       109.7           109.8           0.000    
    129      4     42     16       109.7           109.8           0.000    
    130      5     42     16       109.7           109.8           0.000    
    131      4     42     15       109.7           109.8           0.000    
    132      5     42     15       109.7           109.8           0.000    
    133      4     43     15       109.7           109.8           0.000    
    134      5     43     15       109.7           109.8           0.000    
    135      4     43     14       109.7           109.8           0.000    
    136      5     43     14       109.7           109.8           0.000    
    137      4     43     13       109.7           109.8           0.000    
    138      5     43     13       109.7           109.8           0.000    
    139      4     43     12       109.7           109.8           0.000    
    140      5     43     12       109.7           109.8           0.000    
    141      4     43     11       109.7           109.8           0.000    
    142      5     43     11       109.7           109.8           0.000    
    143      4     43     10       109.7           109.8           0.000    
    144      5     43     10       109.7           109.8           0.000    
    145      4     44     10       109.7           109.8           0.000    
    146      5     44     10       109.7           109.8           0.000    
    147      4     44      9       109.7           109.8           0.000    
    148      5     44      9       109.7           109.8           0.000    
    149      4     44      8       109.7           109.8           0.000    
    150      5     44      8       109.7           109.8           0.000    
    151      4     44      7       109.6           109.8           0.000    
    152      5     44      7       109.6           109.8           0.000    
    153      4     44      6       109.6           109.8           0.000    
    154      5     44      6       109.6           109.8           0.000    
    155      4     44      5       109.6           109.8           0.000    
    156      5     44      5       109.6           109.8           0.000    
    157      4     44      4       109.6           109.8           0.000    
    158      5     44      4       109.6           109.8           0.000    
    159      4     44      3       109.6           109.8           0.000    
    160      5     44      3       109.6           109.8           0.000    
    161      4     45      3       109.6           109.8           0.000    
    162      5     45      3       109.6           109.8           0.000    
    163      4     45      2       109.6           109.8           0.000    
    164      5     45      2       109.6           109.8           0.000    
    165      4     45      1       109.6           109.8           0.000    
    166      5     45      1       109.6           109.8           0.000    


    166 TIME-VARIANT SPECIFIED-HEAD CELLS

 SOLVING FOR HEAD 


     4 CALLS TO PCG ROUTINE FOR TIME STEP   1 IN STRESS PERIOD   27
    72 TOTAL ITERATIONS

 MAXIMUM HEAD CHANGE FOR EACH ITERATION (1 INDICATES THE FIRST INNER ITERATION):

    HEAD CHANGE    HEAD CHANGE    HEAD CHANGE    HEAD CHANGE    HEAD CHANGE 
   LAYER,ROW,COL  LAYER,ROW,COL  LAYER,ROW,COL  LAYER,ROW,COL  LAYER,ROW,COL
 ---------------------------------------------------------------------------
  1  0.4534      0 -0.2179      0 -0.1829      0  0.1301      0  0.1186    
   (  5, 43,  5)  (  5, 34,  1)  (  5, 39,  2)  (  5, 35,  2)  (  5, 37,  1)
  0  0.1189      0  0.8658E-01  0 -0.9517E-01  0 -0.6444E-01  0  0.4636E-01
   (  5, 39,  1)  (  5, 40,  1)  (  5, 37,  1)  (  5, 37,  6)  (  5, 36,  1)
  0 -0.4734E-01  0  0.3887E-01  0  0.1700E-01  0 -0.2782E-01  0  0.1641E-01
   (  5, 35,  9)  (  5, 32,  9)  (  5, 31,  2)  (  5, 30,  9)  (  5, 36,  8)
  0  0.1260E-01  0 -0.9769E-02  0 -0.9536E-02  0 -0.6517E-02  0  0.6427E-02
   (  5, 34,  1)  (  5, 36,  4)  (  5, 35,  8)  (  5, 39,  1)  (  5, 37,  1)
  0 -0.4857E-02  0 -0.4618E-02  0  0.3063E-02  0  0.3347E-02  0 -0.2691E-02
   (  5, 38,  4)  (  5, 32,  4)  (  5, 36,  4)  (  5, 14,  2)  (  5, 13,  1)
  0  0.1917E-02  0 -0.1511E-02  0  0.1255E-02  0 -0.7939E-03  0  0.9336E-03
   (  5, 40,  2)  (  5, 37,  1)  (  5, 35,  1)  (  5, 35,  3)  (  5, 41,  2)
  1 -0.1009E-02  0  0.7065E-03  0  0.1153E-02  0  0.6431E-03  0  0.6350E-03
   (  5, 33,  1)  (  5, 30,  2)  (  5, 34,  3)  (  5, 27,  4)  (  5, 36,  1)
  0 -0.5137E-03  0 -0.4277E-03  0  0.3442E-03  0 -0.3220E-03  0 -0.2229E-03
   (  5, 38,  1)  (  5, 24,  7)  (  5, 35,  1)  (  5, 37,  1)  (  5, 33,  7)
  0  0.1594E-03  0 -0.8877E-04  0  0.7668E-04  0 -0.8094E-04  0  0.8548E-04
   (  5, 30,  9)  (  5, 26,  1)  (  5, 29,  1)  (  5, 32,  4)  (  5, 37,  1)
  0 -0.7505E-04  0  0.4454E-04  0 -0.6155E-04  0  0.5102E-04  0 -0.3844E-04
   (  5, 39,  1)  (  5, 36,  1)  (  5, 36,  4)  (  5, 37,  8)  (  5, 14,  1)
  0  0.2972E-04  0 -0.9030E-05  0 -0.1732E-04  0 -0.1018E-04  0 -0.8363E-05
   (  5, 39,  1)  (  5, 31,  2)  (  5, 41,  1)  (  5, 38,  5)  (  5, 37,  1)
  0  0.8342E-05  0 -0.5520E-05  0 -0.4817E-05  0  0.3876E-05  0 -0.4003E-05
   (  5, 40,  5)  (  5, 30,  6)  (  5, 34,  4)  (  5, 35,  1)  (  5, 42,  5)
  1  0.2975E-05  0 -0.2445E-05  0 -0.3280E-05  0  0.3291E-05  0 -0.2796E-05
   (  5, 40,  2)  (  5, 33,  2)  (  5, 38,  1)  (  5, 35,  2)  (  5, 36,  6)
  0 -0.2880E-05  0  0.1385E-05  0 -0.1711E-05  0 -0.1154E-05  0 -0.1177E-05
   (  5, 40,  5)  (  5, 37,  1)  (  5, 35,  1)  (  5, 37,  5)  (  5, 39,  2)
  0  0.6752E-06  1  0.4128E-06
   (  5, 16,  1)  (  5, 34,  4)

 MAXIMUM RESIDUAL FOR EACH ITERATION (1 INDICATES THE FIRST INNER ITERATION):

    RESIDUAL       RESIDUAL       RESIDUAL       RESIDUAL       RESIDUAL    
   LAYER,ROW,COL  LAYER,ROW,COL  LAYER,ROW,COL  LAYER,ROW,COL  LAYER,ROW,COL
 ---------------------------------------------------------------------------
  1 -0.1173E-02  0 -0.1039E-02  0 -0.9499E-03  0 -0.8454E-03  0 -0.7029E-03
   (  4, 35, 35)  (  4, 35, 35)  (  4, 35, 35)  (  4, 35, 35)  (  4, 35, 35)
  0 -0.5476E-03  0  0.5236E-03  0  0.4483E-03  0  0.3663E-03  0  0.3030E-03
   (  4, 35, 35)  (  4, 43,  6)  (  4, 43,  5)  (  4, 43,  4)  (  4, 43,  4)
  0  0.2407E-03  0  0.1986E-03  0  0.1871E-03  0  0.1550E-03  0  0.1282E-03
   (  4, 43,  4)  (  4, 43,  4)  (  4, 43,  4)  (  4, 44,  2)  (  4, 44,  2)
  0  0.1070E-03  0  0.9855E-04  0  0.7674E-04  0  0.6103E-04  0  0.4871E-04
   (  4, 44,  2)  (  4, 44,  2)  (  4, 44,  2)  (  4, 44,  2)  (  4, 44,  2)
  0  0.4238E-04  0  0.3453E-04  0  0.3009E-04  0  0.2017E-04  0  0.1411E-04
   (  4, 44,  2)  (  4, 44,  2)  (  4, 44,  2)  (  4, 44,  2)  (  4, 34, 35)
  0  0.1148E-04  0  0.9691E-05  0  0.7341E-05  0  0.6587E-05  0  0.4511E-05
   (  4, 34, 35)  (  4, 34, 35)  (  4, 34, 35)  (  4, 34, 35)  (  4, 34, 35)
  1  0.4112E-05  0  0.3954E-05  0  0.2622E-05  0  0.2354E-05  0 -0.1734E-05
   (  4, 34, 35)  (  4, 34, 35)  (  4, 34, 35)  (  4, 34, 35)  (  4, 35, 35)
  0  0.1535E-05  0  0.1317E-05  0  0.1208E-05  0  0.1110E-05  0  0.9742E-06
   (  4, 34, 35)  (  4, 34, 35)  (  4, 34, 35)  (  4, 34, 35)  (  4, 34, 35)
  0  0.7616E-06  0 -0.6252E-06  0 -0.5980E-06  0 -0.5238E-06  0 -0.4030E-06
   (  4, 34, 35)  (  3,  3,  1)  (  3,  3,  1)  (  3,  3,  1)  (  3,  3,  1)
  0 -0.3162E-06  0 -0.2796E-06  0 -0.2197E-06  0 -0.1580E-06  0 -0.1195E-06
   (  3,  3,  1)  (  3,  3,  1)  (  3,  3,  1)  (  3,  3,  1)  (  3,  3,  1)
  0 -0.9348E-07  0 -0.9023E-07  0 -0.7201E-07  0 -0.5731E-07  0 -0.4956E-07
   (  4, 35, 35)  (  4, 35, 35)  (  4, 35, 35)  (  4, 35, 35)  (  3,  3,  1)
  0 -0.4062E-07  0 -0.3182E-07  0 -0.2630E-07  0 -0.2392E-07  0 -0.1954E-07
   (  3,  3,  1)  (  3,  3,  1)  (  3,  3,  1)  (  3,  3,  1)  (  3,  3,  1)
  1 -0.1909E-07  0 -0.1862E-07  0 -0.1690E-07  0 -0.1495E-07  0 -0.1325E-07
   (  3,  3,  1)  (  3,  3,  1)  (  3,  3,  1)  (  3,  3,  1)  (  3,  3,  1)
  0 -0.1024E-07  0 -0.9299E-08  0 -0.7499E-08  0 -0.6207E-08  0 -0.5264E-08
   (  3,  3,  1)  (  3,  3,  1)  (  3,  3,  1)  (  3,  3,  1)  (  3,  3,  1)
  0 -0.4494E-08  1 -0.4387E-08
   (  3,  3,  1)  (  3,  3,  1)



 OUTPUT CONTROL FOR STRESS PERIOD   27   TIME STEP    1
    SAVE HEAD FOR ALL LAYERS
    SAVE DRAWDOWN FOR ALL LAYERS
    SAVE BUDGET
    PRINT BUDGET
 UBDSV1 SAVING "         STORAGE" ON UNIT   9 AT TIME STEP  1, STRESS PERIOD  27
 UBDSV2 SAVING "   CONSTANT HEAD" ON UNIT   9 AT TIME STEP  1, STRESS PERIOD  27
 UBDSV1 SAVING "FLOW RIGHT FACE " ON UNIT   9 AT TIME STEP  1, STRESS PERIOD  27
 UBDSV1 SAVING "FLOW FRONT FACE " ON UNIT   9 AT TIME STEP  1, STRESS PERIOD  27
 UBDSV1 SAVING "FLOW LOWER FACE " ON UNIT   9 AT TIME STEP  1, STRESS PERIOD  27
 UBDSV3 SAVING "        RECHARGE" ON UNIT   9 AT TIME STEP  1, STRESS PERIOD  27

 HEAD WILL BE SAVED ON UNIT   37 AT END OF TIME STEP    1, STRESS PERIOD   27

 DRAWDOWN WILL BE SAVED ON UNIT   38 AT END OF TIME STEP    1, STRESS PERIOD   27
1
  VOLUMETRIC BUDGET FOR ENTIRE MODEL AT END OF TIME STEP    1, STRESS PERIOD  27
  ------------------------------------------------------------------------------

     CUMULATIVE VOLUMES      L**3       RATES FOR THIS TIME STEP      L**3/T
     ------------------                 ------------------------

           IN:                                      IN:
           ---                                      ---
             STORAGE =        6839.2891               STORAGE =           0.0000
       CONSTANT HEAD =        8656.8301         CONSTANT HEAD =       5.9860E-03
            RECHARGE =         344.1337              RECHARGE =       1.0213E-04

            TOTAL IN =       15840.2529              TOTAL IN =       6.0881E-03

          OUT:                                     OUT:
          ----                                     ----
             STORAGE =        2746.5015               STORAGE =       6.0882E-03
       CONSTANT HEAD =       13094.1230         CONSTANT HEAD =           0.0000
            RECHARGE =           0.0000              RECHARGE =           0.0000

           TOTAL OUT =       15840.6250             TOTAL OUT =       6.0882E-03

            IN - OUT =          -0.3721              IN - OUT =      -6.1467E-08

 PERCENT DISCREPANCY =          -0.00     PERCENT DISCREPANCY =          -0.00






         TIME SUMMARY AT END OF TIME STEP    1 IN STRESS PERIOD   27
                    SECONDS     MINUTES      HOURS       DAYS        YEARS
                    -----------------------------------------------------------
   TIME STEP LENGTH  86400.      1440.0      24.000      1.0000     2.73785E-03
 STRESS PERIOD TIME  86400.      1440.0      24.000      1.0000     2.73785E-03
         TOTAL TIME 3.36960E+06  56160.      936.00      39.000     0.10678    
1
1
                            STRESS PERIOD NO.   28, LENGTH =   259200.0    
                            -----------------------------------------------

                              NUMBER OF TIME STEPS =     3

                               MULTIPLIER FOR DELT =     1.000

                            INITIAL TIME STEP SIZE =   86400.00    

 REUSING RECH FROM LAST STRESS PERIOD

 CHD NO.   LAYER   ROW   COL    START HEAD        END HEAD         IFACE           
 ----------------------------------------------------------------------------------
      1      4      3      1       109.7           109.7           0.000    
      2      5      3      1       109.7           109.7           0.000    
      3      4      3      2       109.7           109.7           0.000    
      4      5      3      2       109.7           109.7           0.000    
      5      4      3      3       109.7           109.7           0.000    
      6      5      3      3       109.7           109.7           0.000    
      7      4      3      4       109.7           109.7           0.000    
      8      5      3      4       109.7           109.7           0.000    
      9      4      3      5       109.7           109.7           0.000    
     10      5      3      5       109.7           109.7           0.000    
     11      4      3      6       109.7           109.7           0.000    
     12      5      3      6       109.7           109.7           0.000    
     13      4      3      7       109.7           109.7           0.000    
     14      5      3      7       109.7           109.7           0.000    
     15      4      3      8       109.7           109.7           0.000    
     16      5      3      8       109.7           109.7           0.000    
     17      4      2      8       109.7           109.7           0.000    
     18      5      2      8       109.7           109.7           0.000    
     19      4      2      9       109.7           109.7           0.000    
     20      5      2      9       109.7           109.7           0.000    
     21      4      2     10       109.7           109.7           0.000    
     22      5      2     10       109.7           109.7           0.000    
     23      4      2     11       109.7           109.7           0.000    
     24      5      2     11       109.7           109.7           0.000    
     25      4      2     12       109.7           109.7           0.000    
     26      5      2     12       109.7           109.7           0.000    
     27      4      2     13       109.7           109.7           0.000    
     28      5      2     13       109.7           109.7           0.000    
     29      4      2     14       109.7           109.7           0.000    
     30      5      2     14       109.7           109.7           0.000    
     31      4      2     15       109.7           109.7           0.000    
     32      5      2     15       109.7           109.7           0.000    
     33      4      2     16       109.7           109.7           0.000    
     34      5      2     16       109.7           109.7           0.000    
     35      4      2     17       109.7           109.7           0.000    
     36      5      2     17       109.7           109.7           0.000    
     37      4      2     18       109.7           109.7           0.000    
     38      5      2     18       109.7           109.7           0.000    
     39      4      2     19       109.7           109.7           0.000    
     40      5      2     19       109.7           109.7           0.000    
     41      4      2     20       109.7           109.7           0.000    
     42      5      2     20       109.7           109.7           0.000    
     43      4      2     21       109.7           109.7           0.000    
     44      5      2     21       109.7           109.7           0.000    
     45      4      2     22       109.7           109.7           0.000    
     46      5      2     22       109.7           109.7           0.000    
     47      4      2     23       109.7           109.7           0.000    
     48      5      2     23       109.7           109.7           0.000    
     49      4      2     24       109.7           109.7           0.000    
     50      5      2     24       109.7           109.7           0.000    
     51      4      2     25       109.7           109.7           0.000    
     52      5      2     25       109.7           109.7           0.000    
     53      4      2     26       109.7           109.7           0.000    
     54      5      2     26       109.7           109.7           0.000    
     55      4      1     26       109.7           109.7           0.000    
     56      5      1     26       109.7           109.7           0.000    
     57      4      1     27       109.7           109.7           0.000    
     58      5      1     27       109.7           109.7           0.000    
     59      4      1     28       109.7           109.7           0.000    
     60      5      1     28       109.7           109.7           0.000    
     61      4      1     29       109.7           109.7           0.000    
     62      5      1     29       109.7           109.7           0.000    
     63      4      1     30       109.7           109.7           0.000    
     64      5      1     30       109.7           109.7           0.000    
     65      4      1     31       109.7           109.7           0.000    
     66      5      1     31       109.7           109.7           0.000    
     67      4      1     32       109.7           109.7           0.000    
     68      5      1     32       109.7           109.7           0.000    
     69      4      1     33       109.7           109.7           0.000    
     70      5      1     33       109.7           109.7           0.000    
     71      4      1     34       109.7           109.7           0.000    
     72      5      1     34       109.7           109.7           0.000    
     73      4      1     35       109.7           109.7           0.000    
     74      5      1     35       109.7           109.7           0.000    
     75      4     36     35       109.8           109.4           0.000    
     76      5     36     35       109.8           109.4           0.000    
     77      4     35     34       109.8           109.4           0.000    
     78      5     35     34       109.8           109.4           0.000    
     79      4     36     34       109.8           109.4           0.000    
     80      5     36     34       109.8           109.4           0.000    
     81      4     36     33       109.8           109.4           0.000    
     82      5     36     33       109.8           109.4           0.000    
     83      4     36     32       109.8           109.4           0.000    
     84      5     36     32       109.8           109.4           0.000    
     85      4     37     32       109.8           109.4           0.000    
     86      5     37     32       109.8           109.4           0.000    
     87      4     37     31       109.8           109.4           0.000    
     88      5     37     31       109.8           109.4           0.000    
     89      4     38     31       109.8           109.4           0.000    
     90      5     38     31       109.8           109.4           0.000    
     91      4     38     30       109.8           109.4           0.000    
     92      5     38     30       109.8           109.4           0.000    
     93      4     39     30       109.8           109.4           0.000    
     94      5     39     30       109.8           109.4           0.000    
     95      4     39     29       109.8           109.4           0.000    
     96      5     39     29       109.8           109.4           0.000    
     97      4     40     29       109.8           109.4           0.000    
     98      5     40     29       109.8           109.4           0.000    
     99      4     40     28       109.8           109.4           0.000    
    100      5     40     28       109.8           109.4           0.000    
    101      4     40     27       109.8           109.4           0.000    
    102      5     40     27       109.8           109.4           0.000    
    103      4     41     27       109.8           109.4           0.000    
    104      5     41     27       109.8           109.4           0.000    
    105      4     41     26       109.8           109.4           0.000    
    106      5     41     26       109.8           109.4           0.000    
    107      4     41     25       109.8           109.4           0.000    
    108      5     41     25       109.8           109.4           0.000    
    109      4     41     24       109.8           109.4           0.000    
    110      5     41     24       109.8           109.4           0.000    
    111      4     41     23       109.8           109.4           0.000    
    112      5     41     23       109.8           109.4           0.000    
    113      4     41     22       109.8           109.4           0.000    
    114      5     41     22       109.8           109.4           0.000    
    115      4     42     22       109.8           109.4           0.000    
    116      5     42     22       109.8           109.4           0.000    
    117      4     42     21       109.8           109.4           0.000    
    118      5     42     21       109.8           109.4           0.000    
    119      4     42     20       109.8           109.4           0.000    
    120      5     42     20       109.8           109.4           0.000    
    121      4     42     19       109.8           109.4           0.000    
    122      5     42     19       109.8           109.4           0.000    
    123      4     43     18       109.8           109.4           0.000    
    124      5     43     18       109.8           109.4           0.000    
    125      4     42     18       109.8           109.4           0.000    
    126      5     42     18       109.8           109.4           0.000    
    127      4     42     17       109.8           109.4           0.000    
    128      5     42     17       109.8           109.4           0.000    
    129      4     42     16       109.8           109.4           0.000    
    130      5     42     16       109.8           109.4           0.000    
    131      4     42     15       109.8           109.4           0.000    
    132      5     42     15       109.8           109.4           0.000    
    133      4     43     15       109.8           109.4           0.000    
    134      5     43     15       109.8           109.4           0.000    
    135      4     43     14       109.8           109.4           0.000    
    136      5     43     14       109.8           109.4           0.000    
    137      4     43     13       109.8           109.4           0.000    
    138      5     43     13       109.8           109.4           0.000    
    139      4     43     12       109.8           109.4           0.000    
    140      5     43     12       109.8           109.4           0.000    
    141      4     43     11       109.8           109.4           0.000    
    142      5     43     11       109.8           109.4           0.000    
    143      4     43     10       109.8           109.4           0.000    
    144      5     43     10       109.8           109.4           0.000    
    145      4     44     10       109.8           109.4           0.000    
    146      5     44     10       109.8           109.4           0.000    
    147      4     44      9       109.8           109.4           0.000    
    148      5     44      9       109.8           109.4           0.000    
    149      4     44      8       109.8           109.4           0.000    
    150      5     44      8       109.8           109.4           0.000    
    151      4     44      7       109.8           109.4           0.000    
    152      5     44      7       109.8           109.4           0.000    
    153      4     44      6       109.8           109.4           0.000    
    154      5     44      6       109.8           109.4           0.000    
    155      4     44      5       109.8           109.4           0.000    
    156      5     44      5       109.8           109.4           0.000    
    157      4     44      4       109.8           109.4           0.000    
    158      5     44      4       109.8           109.4           0.000    
    159      4     44      3       109.8           109.4           0.000    
    160      5     44      3       109.8           109.4           0.000    
    161      4     45      3       109.8           109.4           0.000    
    162      5     45      3       109.8           109.4           0.000    
    163      4     45      2       109.8           109.4           0.000    
    164      5     45      2       109.8           109.4           0.000    
    165      4     45      1       109.8           109.4           0.000    
    166      5     45      1       109.8           109.4           0.000    


    166 TIME-VARIANT SPECIFIED-HEAD CELLS

 SOLVING FOR HEAD 


     4 CALLS TO PCG ROUTINE FOR TIME STEP   1 IN STRESS PERIOD   28
    66 TOTAL ITERATIONS

 MAXIMUM HEAD CHANGE FOR EACH ITERATION (1 INDICATES THE FIRST INNER ITERATION):

    HEAD CHANGE    HEAD CHANGE    HEAD CHANGE    HEAD CHANGE    HEAD CHANGE 
   LAYER,ROW,COL  LAYER,ROW,COL  LAYER,ROW,COL  LAYER,ROW,COL  LAYER,ROW,COL
 ---------------------------------------------------------------------------
  1 -0.3643      0  0.2161      0 -0.1361      0  0.1059      0 -0.1672    
   (  5, 43,  5)  (  5, 35,  1)  (  5, 31,  2)  (  5, 28,  3)  (  5, 37,  1)
  0  0.8312E-01  0 -0.9306E-01  0  0.1038      0  0.6071E-01  0  0.4530E-01
   (  5, 35,  2)  (  5, 40,  1)  (  5, 37,  1)  (  5, 37,  6)  (  5, 40,  1)
  0  0.3305E-01  0 -0.2991E-01  0  0.1596E-01  0 -0.1477E-01  0 -0.1872E-01
   (  5, 33,  1)  (  5, 33,  9)  (  5, 30,  3)  (  5, 27, 10)  (  5, 36,  8)
  0 -0.1271E-01  0  0.9506E-02  0  0.6714E-02  0 -0.6532E-02  0  0.5364E-02
   (  5, 30,  9)  (  5, 28,  9)  (  5, 34,  2)  (  5, 36,  1)  (  5, 38,  3)
  0  0.3814E-02  0  0.3297E-02  0 -0.4704E-02  0 -0.3631E-02  0  0.2803E-02
   (  5, 32,  5)  (  5, 27,  1)  (  5, 34,  7)  (  5, 14,  1)  (  5, 13,  1)
  0 -0.1582E-02  0  0.1524E-02  0 -0.1145E-02  0  0.6946E-03  0 -0.5654E-03
   (  5, 39,  2)  (  5, 37,  1)  (  5, 40,  2)  (  5, 32,  1)  (  5, 33,  3)
  1  0.3726E-03  0 -0.4742E-03  0  0.3586E-03  0  0.4448E-03  0 -0.5062E-03
   (  5, 28,  2)  (  5, 32,  2)  (  5, 34,  1)  (  5, 39,  1)  (  5, 41,  2)
  0  0.3649E-03  0 -0.2942E-03  0  0.1728E-03  0 -0.1800E-03  0 -0.1556E-03
   (  5, 39,  2)  (  5, 39,  5)  (  5, 34,  3)  (  5, 34,  1)  (  5, 13,  1)
  0 -0.9841E-04  0  0.8968E-04  0  0.8552E-04  0 -0.5941E-04  0  0.4021E-04
   (  5, 30,  3)  (  5, 35,  4)  (  5, 41,  2)  (  5, 40,  1)  (  5, 33,  1)
  0 -0.4683E-04  0 -0.4077E-04  0  0.3748E-04  0 -0.2351E-04  0 -0.1571E-04
   (  5, 37,  5)  (  5, 32,  9)  (  5, 34,  8)  (  5, 29, 11)  (  5, 36,  9)
  0  0.1070E-04  0  0.1212E-04  0  0.1215E-04  0 -0.1269E-04  0  0.8210E-05
   (  5, 31,  5)  (  5, 39, 10)  (  5, 36,  1)  (  5, 38,  1)  (  5, 40,  6)
  0 -0.5176E-05  0  0.4045E-05  0  0.4116E-05  0  0.3361E-05  0  0.2196E-05
   (  5, 39,  6)  (  5, 35,  2)  (  5, 31,  7)  (  5, 43,  7)  (  5, 38,  1)
  1 -0.1630E-05  0  0.1095E-05  0 -0.1427E-05  0 -0.1307E-05  0 -0.9338E-06
   (  5, 39,  2)  (  5, 30,  5)  (  5, 31,  1)  (  5, 31,  7)  (  5, 35,  3)
  1  0.9043E-06
   (  5, 34,  1)

 MAXIMUM RESIDUAL FOR EACH ITERATION (1 INDICATES THE FIRST INNER ITERATION):

    RESIDUAL       RESIDUAL       RESIDUAL       RESIDUAL       RESIDUAL    
   LAYER,ROW,COL  LAYER,ROW,COL  LAYER,ROW,COL  LAYER,ROW,COL  LAYER,ROW,COL
 ---------------------------------------------------------------------------
  1  0.2185E-02  0  0.1719E-02  0  0.1468E-02  0  0.1210E-02  0  0.9566E-03
   (  4, 44,  2)  (  4, 44,  2)  (  4, 44,  2)  (  4, 44,  2)  (  3, 40, 27)
  0  0.8362E-03  0  0.7101E-03  0  0.5695E-03  0  0.4629E-03  0  0.3758E-03
   (  3, 40, 27)  (  3, 40, 27)  (  3, 40, 27)  (  3, 40, 27)  (  4, 35, 35)
  0  0.2980E-03  0  0.2322E-03  0  0.2161E-03  0  0.1597E-03  0 -0.1178E-03
   (  4, 35, 35)  (  4, 35, 35)  (  4, 35, 35)  (  4, 35, 35)  (  3, 35, 35)
  0 -0.9126E-04  0 -0.7410E-04  0 -0.6880E-04  0 -0.5728E-04  0 -0.5224E-04
   (  3, 35, 35)  (  4, 34, 35)  (  4, 34, 35)  (  4, 34, 35)  (  4, 34, 35)
  0 -0.4523E-04  0 -0.4225E-04  0 -0.3726E-04  0 -0.2942E-04  0 -0.2366E-04
   (  4, 34, 35)  (  4, 34, 35)  (  4, 34, 35)  (  4, 34, 35)  (  4, 34, 35)
  0 -0.1955E-04  0 -0.1735E-04  0 -0.1318E-04  0 -0.1033E-04  0 -0.9539E-05
   (  4, 34, 35)  (  4, 34, 35)  (  4, 34, 35)  (  4, 34, 35)  (  4, 34, 35)
  1 -0.9450E-05  0 -0.9032E-05  0 -0.8791E-05  0 -0.7275E-05  0 -0.5669E-05
   (  4, 34, 35)  (  4, 34, 35)  (  4, 34, 35)  (  4, 34, 35)  (  4, 34, 35)
  0 -0.4928E-05  0 -0.3970E-05  0 -0.3279E-05  0 -0.2243E-05  0 -0.1625E-05
   (  4, 34, 35)  (  4, 34, 35)  (  4, 34, 35)  (  4, 34, 35)  (  4, 34, 35)
  0 -0.1441E-05  0 -0.1250E-05  0  0.9864E-06  0  0.8039E-06  0  0.7518E-06
   (  4, 34, 35)  (  4, 34, 35)  (  4, 35, 35)  (  4, 35, 35)  (  4, 35, 35)
  0  0.6126E-06  0  0.4803E-06  0  0.3817E-06  0  0.2992E-06  0  0.2388E-06
   (  4, 35, 35)  (  4, 35, 35)  (  4, 35, 35)  (  4, 35, 35)  (  4, 35, 35)
  0  0.2218E-06  0  0.1716E-06  0  0.1466E-06  0  0.1085E-06  0  0.7658E-07
   (  4, 35, 35)  (  4, 35, 35)  (  4, 35, 35)  (  4, 35, 35)  (  4, 35, 35)
  0  0.5760E-07  0  0.5185E-07  0  0.4042E-07  0  0.2726E-07  0  0.2352E-07
   (  4, 35, 35)  (  4, 35, 35)  (  4, 35, 35)  (  4, 35, 35)  (  4, 35, 35)
  1  0.2294E-07  0  0.2227E-07  0  0.2117E-07  0  0.1773E-07  0  0.1618E-07
   (  4, 35, 35)  (  4, 35, 35)  (  4, 35, 35)  (  4, 35, 35)  (  4, 35, 35)
  1  0.1610E-07
   (  4, 35, 35)



 OUTPUT CONTROL FOR STRESS PERIOD   28   TIME STEP    1
    SAVE HEAD FOR ALL LAYERS
    SAVE DRAWDOWN FOR ALL LAYERS
    SAVE BUDGET
    PRINT BUDGET
 UBDSV1 SAVING "         STORAGE" ON UNIT   9 AT TIME STEP  1, STRESS PERIOD  28
 UBDSV2 SAVING "   CONSTANT HEAD" ON UNIT   9 AT TIME STEP  1, STRESS PERIOD  28
 UBDSV1 SAVING "FLOW RIGHT FACE " ON UNIT   9 AT TIME STEP  1, STRESS PERIOD  28
 UBDSV1 SAVING "FLOW FRONT FACE " ON UNIT   9 AT TIME STEP  1, STRESS PERIOD  28
 UBDSV1 SAVING "FLOW LOWER FACE " ON UNIT   9 AT TIME STEP  1, STRESS PERIOD  28
 UBDSV3 SAVING "        RECHARGE" ON UNIT   9 AT TIME STEP  1, STRESS PERIOD  28

 HEAD WILL BE SAVED ON UNIT   37 AT END OF TIME STEP    1, STRESS PERIOD   28

 DRAWDOWN WILL BE SAVED ON UNIT   38 AT END OF TIME STEP    1, STRESS PERIOD   28
1
  VOLUMETRIC BUDGET FOR ENTIRE MODEL AT END OF TIME STEP    1, STRESS PERIOD  28
  ------------------------------------------------------------------------------

     CUMULATIVE VOLUMES      L**3       RATES FOR THIS TIME STEP      L**3/T
     ------------------                 ------------------------

           IN:                                      IN:
           ---                                      ---
             STORAGE =        6921.7832               STORAGE =       9.5479E-04
       CONSTANT HEAD =        8716.2129         CONSTANT HEAD =       6.8730E-04
            RECHARGE =         352.9576              RECHARGE =       1.0213E-04

            TOTAL IN =       15990.9541              TOTAL IN =       1.7442E-03

          OUT:                                     OUT:
          ----                                     ----
             STORAGE =        2774.0127               STORAGE =       3.1842E-04
       CONSTANT HEAD =       13217.3379         CONSTANT HEAD =       1.4261E-03
            RECHARGE =           0.0000              RECHARGE =           0.0000

           TOTAL OUT =       15991.3506             TOTAL OUT =       1.7445E-03

            IN - OUT =          -0.3965              IN - OUT =      -2.9337E-07

 PERCENT DISCREPANCY =          -0.00     PERCENT DISCREPANCY =          -0.02






         TIME SUMMARY AT END OF TIME STEP    1 IN STRESS PERIOD   28
                    SECONDS     MINUTES      HOURS       DAYS        YEARS
                    -----------------------------------------------------------
   TIME STEP LENGTH  86400.      1440.0      24.000      1.0000     2.73785E-03
 STRESS PERIOD TIME  86400.      1440.0      24.000      1.0000     2.73785E-03
         TOTAL TIME 3.45600E+06  57600.      960.00      40.000     0.10951    
1

 SOLVING FOR HEAD 
     4 CALLS TO PCG ROUTINE FOR TIME STEP   2 IN STRESS PERIOD   28
    69 TOTAL ITERATIONS

 MAXIMUM HEAD CHANGE FOR EACH ITERATION (1 INDICATES THE FIRST INNER ITERATION):

    HEAD CHANGE    HEAD CHANGE    HEAD CHANGE    HEAD CHANGE    HEAD CHANGE 
   LAYER,ROW,COL  LAYER,ROW,COL  LAYER,ROW,COL  LAYER,ROW,COL  LAYER,ROW,COL
 ---------------------------------------------------------------------------
  1 -0.3966      0  0.2197      0 -0.1285      0  0.1097      0 -0.1494    
   (  5, 43,  5)  (  5, 35,  1)  (  5, 30,  2)  (  5, 41,  2)  (  5, 37,  1)
  0 -0.7688E-01  0 -0.9522E-01  0  0.1044      0  0.5852E-01  0  0.4692E-01
   (  5, 39,  1)  (  5, 40,  1)  (  5, 37,  1)  (  5, 37,  6)  (  5, 40,  2)
  0  0.3919E-01  0 -0.3789E-01  0  0.1711E-01  0  0.2264E-01  0 -0.2074E-01
   (  5, 35,  9)  (  5, 33,  9)  (  5, 30,  3)  (  5, 30,  8)  (  5, 36,  8)
  0  0.1030E-01  0 -0.1102E-01  0  0.8696E-02  0  0.6845E-02  0  0.5997E-02
   (  5, 37,  1)  (  5, 34,  1)  (  5, 15,  1)  (  5, 30, 10)  (  5, 38,  4)
  0 -0.4436E-02  0 -0.4064E-02  0  0.2076E-02  0 -0.3561E-02  0  0.2775E-02
   (  5, 37,  1)  (  5, 34,  7)  (  5, 34,  1)  (  5, 14,  1)  (  5, 13,  1)
  0 -0.1757E-02  0  0.1834E-02  0 -0.8296E-03  0  0.9923E-03  0 -0.7173E-03
   (  5, 39,  2)  (  5, 37,  1)  (  5, 34,  1)  (  5, 35,  3)  (  5, 36,  1)
  1  0.4931E-03  0 -0.4385E-03  0  0.6338E-03  0 -0.3127E-03  0 -0.6329E-03
   (  5, 28,  2)  (  5, 31,  2)  (  5, 39,  1)  (  5, 27,  4)  (  5, 37,  1)
  0  0.4214E-03  0 -0.3873E-03  0 -0.2599E-03  0  0.2424E-03  0 -0.1301E-03
   (  5, 38,  3)  (  5, 39,  5)  (  5, 39,  2)  (  5, 37,  1)  (  5, 34,  1)
  0 -0.1308E-03  0  0.5908E-04  0  0.1203E-03  0 -0.8469E-04  0  0.4788E-04
   (  5, 31,  4)  (  5, 32,  2)  (  5, 41,  2)  (  5, 40,  2)  (  5, 35,  7)
  0 -0.5299E-04  0 -0.3141E-04  0  0.4434E-04  0 -0.2616E-04  0  0.2071E-04
   (  5, 32,  9)  (  5, 36,  1)  (  5, 37,  4)  (  5, 30, 11)  (  5, 14,  1)
  0 -0.1310E-04  0  0.1978E-04  0 -0.1461E-04  0 -0.1581E-04  0  0.7622E-05
   (  5, 30,  3)  (  5, 36,  1)  (  5, 38,  1)  (  5, 36,  6)  (  5, 40,  6)
  0 -0.5258E-05  0  0.4659E-05  0  0.3354E-05  0 -0.3885E-05  0  0.2111E-05
   (  5, 42,  6)  (  5, 32,  7)  (  5, 32,  1)  (  5, 35,  1)  (  5, 27,  1)
  1 -0.1465E-05  0  0.1737E-05  0 -0.1315E-05  0  0.1771E-05  0  0.1728E-05
   (  5, 29,  2)  (  5, 36,  2)  (  5, 36,  1)  (  5, 34,  4)  (  5, 39,  1)
  0  0.1282E-05  0 -0.1057E-05  0  0.8325E-06  1  0.6656E-06
   (  5, 34,  1)  (  5, 36,  1)  (  5, 38,  1)  (  5, 32,  8)

 MAXIMUM RESIDUAL FOR EACH ITERATION (1 INDICATES THE FIRST INNER ITERATION):

    RESIDUAL       RESIDUAL       RESIDUAL       RESIDUAL       RESIDUAL    
   LAYER,ROW,COL  LAYER,ROW,COL  LAYER,ROW,COL  LAYER,ROW,COL  LAYER,ROW,COL
 ---------------------------------------------------------------------------
  1  0.2056E-02  0  0.1578E-02  0  0.1335E-02  0  0.1165E-02  0  0.9821E-03
   (  4, 44,  2)  (  4, 44,  2)  (  4, 44,  2)  (  4, 35, 35)  (  4, 35, 35)
  0  0.8336E-03  0  0.7063E-03  0  0.5624E-03  0  0.4522E-03  0  0.3492E-03
   (  4, 35, 35)  (  3, 40, 27)  (  3, 40, 27)  (  3, 40, 27)  (  3, 40, 27)
  0  0.2618E-03  0 -0.2145E-03  0 -0.2013E-03  0 -0.1629E-03  0 -0.1273E-03
   (  4, 35, 35)  (  3, 35, 35)  (  3, 35, 35)  (  3, 35, 35)  (  3, 35, 35)
  0 -0.1120E-03  0 -0.9238E-04  0 -0.6987E-04  0 -0.5911E-04  0 -0.4941E-04
   (  3, 35, 35)  (  3, 35, 35)  (  4, 34, 35)  (  4, 34, 35)  (  4, 34, 35)
  0 -0.4462E-04  0 -0.3904E-04  0 -0.3743E-04  0 -0.2949E-04  0 -0.2336E-04
   (  4, 34, 35)  (  4, 34, 35)  (  4, 34, 35)  (  4, 34, 35)  (  4, 34, 35)
  0 -0.1948E-04  0 -0.1688E-04  0 -0.1564E-04  0 -0.1213E-04  0 -0.8817E-05
   (  4, 34, 35)  (  4, 34, 35)  (  4, 34, 35)  (  4, 34, 35)  (  4, 34, 35)
  1 -0.8494E-05  0 -0.8254E-05  0 -0.6537E-05  0 -0.6021E-05  0 -0.4525E-05
   (  4, 34, 35)  (  4, 34, 35)  (  4, 34, 35)  (  4, 34, 35)  (  4, 34, 35)
  0 -0.3923E-05  0 -0.2827E-05  0 -0.2311E-05  0  0.1759E-05  0  0.1513E-05
   (  4, 34, 35)  (  4, 34, 35)  (  4, 34, 35)  (  4, 35, 35)  (  4, 35, 35)
  0  0.1230E-05  0  0.1186E-05  0  0.9780E-06  0  0.8329E-06  0  0.6667E-06
   (  4, 35, 35)  (  4, 35, 35)  (  4, 35, 35)  (  4, 35, 35)  (  4, 35, 35)
  0  0.5540E-06  0  0.5104E-06  0  0.3939E-06  0  0.2924E-06  0  0.2238E-06
   (  4, 35, 35)  (  4, 35, 35)  (  4, 35, 35)  (  4, 35, 35)  (  4, 35, 35)
  0  0.2098E-06  0  0.1793E-06  0  0.1379E-06  0  0.9905E-07  0  0.7327E-07
   (  4, 35, 35)  (  4, 35, 35)  (  4, 35, 35)  (  4, 35, 35)  (  4, 35, 35)
  0  0.5543E-07  0  0.4244E-07  0  0.3785E-07  0  0.2837E-07  0  0.2511E-07
   (  4, 35, 35)  (  4, 35, 35)  (  4, 35, 35)  (  4, 35, 35)  (  4, 35, 35)
  1  0.2500E-07  0  0.2388E-07  0  0.2304E-07  0  0.2111E-07  0  0.1724E-07
   (  4, 35, 35)  (  4, 35, 35)  (  4, 35, 35)  (  4, 35, 35)  (  4, 35, 35)
  0  0.1328E-07  0  0.1211E-07  0  0.1019E-07  1  0.9873E-08
   (  4, 35, 35)  (  4, 35, 35)  (  4, 35, 35)  (  4, 35, 35)



 OUTPUT CONTROL FOR STRESS PERIOD   28   TIME STEP    2
    SAVE HEAD FOR ALL LAYERS
    SAVE DRAWDOWN FOR ALL LAYERS
    SAVE BUDGET
    PRINT BUDGET
 UBDSV1 SAVING "         STORAGE" ON UNIT   9 AT TIME STEP  2, STRESS PERIOD  28
 UBDSV2 SAVING "   CONSTANT HEAD" ON UNIT   9 AT TIME STEP  2, STRESS PERIOD  28
 UBDSV1 SAVING "FLOW RIGHT FACE " ON UNIT   9 AT TIME STEP  2, STRESS PERIOD  28
 UBDSV1 SAVING "FLOW FRONT FACE " ON UNIT   9 AT TIME STEP  2, STRESS PERIOD  28
 UBDSV1 SAVING "FLOW LOWER FACE " ON UNIT   9 AT TIME STEP  2, STRESS PERIOD  28
 UBDSV3 SAVING "        RECHARGE" ON UNIT   9 AT TIME STEP  2, STRESS PERIOD  28

 HEAD WILL BE SAVED ON UNIT   37 AT END OF TIME STEP    2, STRESS PERIOD   28

 DRAWDOWN WILL BE SAVED ON UNIT   38 AT END OF TIME STEP    2, STRESS PERIOD   28
1
  VOLUMETRIC BUDGET FOR ENTIRE MODEL AT END OF TIME STEP    2, STRESS PERIOD  28
  ------------------------------------------------------------------------------

     CUMULATIVE VOLUMES      L**3       RATES FOR THIS TIME STEP      L**3/T
     ------------------                 ------------------------

           IN:                                      IN:
           ---                                      ---
             STORAGE =        7133.2300               STORAGE =       2.4473E-03
       CONSTANT HEAD =        8817.2637         CONSTANT HEAD =       1.1696E-03
            RECHARGE =         361.7816              RECHARGE =       1.0213E-04

            TOTAL IN =       16312.2754              TOTAL IN =       3.7190E-03

          OUT:                                     OUT:
          ----                                     ----
             STORAGE =        2774.0127               STORAGE =           0.0000
       CONSTANT HEAD =       13538.6738         CONSTANT HEAD =       3.7192E-03
            RECHARGE =           0.0000              RECHARGE =           0.0000

           TOTAL OUT =       16312.6865             TOTAL OUT =       3.7192E-03

            IN - OUT =          -0.4111              IN - OUT =      -1.7043E-07

 PERCENT DISCREPANCY =          -0.00     PERCENT DISCREPANCY =          -0.00






         TIME SUMMARY AT END OF TIME STEP    2 IN STRESS PERIOD   28
                    SECONDS     MINUTES      HOURS       DAYS        YEARS
                    -----------------------------------------------------------
   TIME STEP LENGTH  86400.      1440.0      24.000      1.0000     2.73785E-03
 STRESS PERIOD TIME 1.72800E+05  2880.0      48.000      2.0000     5.47570E-03
         TOTAL TIME 3.54240E+06  59040.      984.00      41.000     0.11225    
1

 SOLVING FOR HEAD 
     4 CALLS TO PCG ROUTINE FOR TIME STEP   3 IN STRESS PERIOD   28
    70 TOTAL ITERATIONS

 MAXIMUM HEAD CHANGE FOR EACH ITERATION (1 INDICATES THE FIRST INNER ITERATION):

    HEAD CHANGE    HEAD CHANGE    HEAD CHANGE    HEAD CHANGE    HEAD CHANGE 
   LAYER,ROW,COL  LAYER,ROW,COL  LAYER,ROW,COL  LAYER,ROW,COL  LAYER,ROW,COL
 ---------------------------------------------------------------------------
  1 -0.4064      0  0.2195      0 -0.1279      0  0.1116      0 -0.1426    
   (  5, 43,  5)  (  5, 35,  1)  (  5, 30,  2)  (  5, 41,  2)  (  5, 37,  1)
  0 -0.8324E-01  0 -0.9633E-01  0  0.1029      0  0.5803E-01  0  0.4610E-01
   (  5, 39,  1)  (  5, 40,  1)  (  5, 37,  1)  (  5, 37,  6)  (  5, 40,  2)
  0  0.4076E-01  0 -0.4186E-01  0  0.1446E-01  0  0.1902E-01  0 -0.1845E-01
   (  5, 35,  9)  (  5, 32,  9)  (  5, 31,  4)  (  5, 30,  9)  (  5, 36,  8)
  0 -0.1125E-01  0  0.1041E-01  0  0.8852E-02  0 -0.6564E-02  0  0.6135E-02
   (  5, 34,  1)  (  5, 35,  4)  (  5, 15,  1)  (  5, 38,  7)  (  5, 36,  7)
  0 -0.4324E-02  0  0.3353E-02  0 -0.2463E-02  0 -0.3046E-02  0  0.2890E-02
   (  5, 37,  1)  (  5, 35,  1)  (  5, 30,  2)  (  5, 14,  1)  (  5, 13,  1)
  0  0.2088E-02  0 -0.1303E-02  0 -0.1026E-02  0  0.9424E-03  0 -0.7688E-03
   (  5, 37,  1)  (  5, 40,  2)  (  5, 35,  1)  (  5, 38,  1)  (  5, 36,  1)
  1 -0.4734E-03  0  0.5464E-03  0 -0.5319E-03  0  0.4417E-03  0 -0.6612E-03
   (  5, 19,  9)  (  5, 26,  5)  (  5, 28,  4)  (  5, 31,  3)  (  5, 34,  3)
  0  0.5127E-03  0 -0.4366E-03  0  0.4311E-03  0 -0.3222E-03  0  0.2413E-03
   (  5, 38,  4)  (  5, 38,  3)  (  5, 38,  1)  (  5, 39,  1)  (  5, 37,  1)
  0 -0.1511E-03  0  0.1570E-03  0  0.7594E-04  0 -0.7750E-04  0  0.6043E-04
   (  5, 39,  2)  (  5, 41,  2)  (  5, 27,  2)  (  5, 33,  6)  (  5, 32,  4)
  0 -0.4528E-04  0  0.3677E-04  0  0.3950E-04  0 -0.3266E-04  0 -0.2962E-04
   (  5, 37,  1)  (  5, 33,  1)  (  5, 34,  8)  (  5, 41,  1)  (  5, 36,  9)
  0 -0.1581E-04  0 -0.1869E-04  0  0.7807E-05  0 -0.1587E-04  0 -0.9204E-05
   (  5, 39,  3)  (  5, 29,  1)  (  5, 29,  3)  (  5, 36,  6)  (  5, 28, 12)
  0  0.6913E-05  0 -0.6361E-05  0 -0.3881E-05  0  0.3228E-05  0 -0.3071E-05
   (  5, 40,  2)  (  5, 41,  5)  (  5, 34,  3)  (  5, 32,  1)  (  5, 38,  2)
  1  0.1846E-05  0 -0.1960E-05  0  0.1249E-05  0 -0.1765E-05  0 -0.2300E-05
   (  5, 36,  2)  (  5, 31,  1)  (  5, 22,  1)  (  5, 29,  5)  (  5, 13,  2)
  0  0.1943E-05  0 -0.1316E-05  0  0.1070E-05  0 -0.8265E-06  1 -0.5857E-06
   (  5, 12,  1)  (  5, 38,  3)  (  5, 26, 12)  (  5, 28, 11)  (  5, 36,  6)

 MAXIMUM RESIDUAL FOR EACH ITERATION (1 INDICATES THE FIRST INNER ITERATION):

    RESIDUAL       RESIDUAL       RESIDUAL       RESIDUAL       RESIDUAL    
   LAYER,ROW,COL  LAYER,ROW,COL  LAYER,ROW,COL  LAYER,ROW,COL  LAYER,ROW,COL
 ---------------------------------------------------------------------------
  1  0.2017E-02  0  0.1542E-02  0  0.1301E-02  0  0.1177E-02  0  0.9992E-03
   (  4, 44,  2)  (  4, 44,  2)  (  4, 44,  2)  (  4, 35, 35)  (  4, 35, 35)
  0  0.8448E-03  0  0.7047E-03  0  0.5609E-03  0  0.4499E-03  0  0.3459E-03
   (  4, 35, 35)  (  3, 40, 27)  (  3, 40, 27)  (  3, 40, 27)  (  3, 40, 27)
  0 -0.2588E-03  0 -0.2119E-03  0 -0.2005E-03  0 -0.1658E-03  0 -0.1290E-03
   (  3, 35, 35)  (  3, 35, 35)  (  3, 35, 35)  (  3, 35, 35)  (  3, 35, 35)
  0 -0.1161E-03  0 -0.9253E-04  0 -0.6856E-04  0 -0.5835E-04  0 -0.4900E-04
   (  3, 35, 35)  (  4, 43,  4)  (  4, 43,  4)  (  4, 34, 35)  (  4, 34, 35)
  0 -0.4080E-04  0 -0.3815E-04  0 -0.3639E-04  0 -0.2939E-04  0 -0.2308E-04
   (  4, 34, 35)  (  4, 34, 35)  (  4, 34, 35)  (  4, 34, 35)  (  4, 34, 35)
  0 -0.1902E-04  0 -0.1648E-04  0 -0.1455E-04  0 -0.1181E-04  0 -0.8429E-05
   (  4, 34, 35)  (  4, 34, 35)  (  4, 34, 35)  (  4, 34, 35)  (  4, 34, 35)
  1 -0.7888E-05  0 -0.6679E-05  0 -0.5904E-05  0 -0.5455E-05  0 -0.4465E-05
   (  4, 34, 35)  (  4, 34, 35)  (  4, 34, 35)  (  4, 34, 35)  (  4, 34, 35)
  0 -0.3414E-05  0 -0.2774E-05  0 -0.1959E-05  0  0.1619E-05  0  0.1355E-05
   (  4, 34, 35)  (  4, 34, 35)  (  4, 34, 35)  (  4, 35, 35)  (  4, 35, 35)
  0  0.1102E-05  0  0.9361E-06  0  0.8567E-06  0  0.7764E-06  0  0.6060E-06
   (  4, 35, 35)  (  4, 35, 35)  (  4, 35, 35)  (  4, 35, 35)  (  4, 35, 35)
  0  0.5092E-06  0  0.4630E-06  0  0.3592E-06  0  0.2585E-06  0  0.1940E-06
   (  4, 35, 35)  (  4, 35, 35)  (  4, 35, 35)  (  4, 35, 35)  (  4, 35, 35)
  0  0.1660E-06  0  0.1296E-06  0  0.1206E-06  0  0.8655E-07  0  0.6328E-07
   (  4, 35, 35)  (  4, 35, 35)  (  4, 35, 35)  (  4, 35, 35)  (  4, 35, 35)
  0  0.4805E-07  0  0.3637E-07  0  0.2914E-07  0  0.2338E-07  0  0.2019E-07
   (  4, 35, 35)  (  4, 35, 35)  (  4, 35, 35)  (  4, 35, 35)  (  4, 35, 35)
  1  0.1942E-07  0  0.1872E-07  0  0.1790E-07  0  0.1677E-07  0  0.1320E-07
   (  4, 35, 35)  (  4, 35, 35)  (  4, 35, 35)  (  4, 35, 35)  (  4, 35, 35)
  0  0.1069E-07  0  0.9733E-08  0  0.8109E-08  0  0.6899E-08  1  0.6628E-08
   (  4, 35, 35)  (  4, 35, 35)  (  4, 35, 35)  (  4, 35, 35)  (  4, 35, 35)



 OUTPUT CONTROL FOR STRESS PERIOD   28   TIME STEP    3
    SAVE HEAD FOR ALL LAYERS
    SAVE DRAWDOWN FOR ALL LAYERS
    SAVE BUDGET
    PRINT BUDGET
 UBDSV1 SAVING "         STORAGE" ON UNIT   9 AT TIME STEP  3, STRESS PERIOD  28
 UBDSV2 SAVING "   CONSTANT HEAD" ON UNIT   9 AT TIME STEP  3, STRESS PERIOD  28
 UBDSV1 SAVING "FLOW RIGHT FACE " ON UNIT   9 AT TIME STEP  3, STRESS PERIOD  28
 UBDSV1 SAVING "FLOW FRONT FACE " ON UNIT   9 AT TIME STEP  3, STRESS PERIOD  28
 UBDSV1 SAVING "FLOW LOWER FACE " ON UNIT   9 AT TIME STEP  3, STRESS PERIOD  28
 UBDSV3 SAVING "        RECHARGE" ON UNIT   9 AT TIME STEP  3, STRESS PERIOD  28

 HEAD WILL BE SAVED ON UNIT   37 AT END OF TIME STEP    3, STRESS PERIOD   28

 DRAWDOWN WILL BE SAVED ON UNIT   38 AT END OF TIME STEP    3, STRESS PERIOD   28
1
  VOLUMETRIC BUDGET FOR ENTIRE MODEL AT END OF TIME STEP    3, STRESS PERIOD  28
  ------------------------------------------------------------------------------

     CUMULATIVE VOLUMES      L**3       RATES FOR THIS TIME STEP      L**3/T
     ------------------                 ------------------------

           IN:                                      IN:
           ---                                      ---
             STORAGE =        7393.6802               STORAGE =       3.0145E-03
       CONSTANT HEAD =        9005.9463         CONSTANT HEAD =       2.1838E-03
            RECHARGE =         370.6055              RECHARGE =       1.0213E-04

            TOTAL IN =       16770.2324              TOTAL IN =       5.3004E-03

          OUT:                                     OUT:
          ----                                     ----
             STORAGE =        2774.0127               STORAGE =           0.0000
       CONSTANT HEAD =       13996.6416         CONSTANT HEAD =       5.3006E-03
            RECHARGE =           0.0000              RECHARGE =           0.0000

           TOTAL OUT =       16770.6543             TOTAL OUT =       5.3006E-03

            IN - OUT =          -0.4219              IN - OUT =      -1.2480E-07

 PERCENT DISCREPANCY =          -0.00     PERCENT DISCREPANCY =          -0.00






         TIME SUMMARY AT END OF TIME STEP    3 IN STRESS PERIOD   28
                    SECONDS     MINUTES      HOURS       DAYS        YEARS
                    -----------------------------------------------------------
   TIME STEP LENGTH  86400.      1440.0      24.000      1.0000     2.73785E-03
 STRESS PERIOD TIME 2.59200E+05  4320.0      72.000      3.0000     8.21355E-03
         TOTAL TIME 3.62880E+06  60480.      1008.0      42.000     0.11499    
1
1
                            STRESS PERIOD NO.   29, LENGTH =   86400.00    
                            -----------------------------------------------

                              NUMBER OF TIME STEPS =     1

                               MULTIPLIER FOR DELT =     1.000

                            INITIAL TIME STEP SIZE =   86400.00    

 REUSING RECH FROM LAST STRESS PERIOD

 CHD NO.   LAYER   ROW   COL    START HEAD        END HEAD         IFACE           
 ----------------------------------------------------------------------------------
      1      4      3      1       109.7           109.6           0.000    
      2      5      3      1       109.7           109.6           0.000    
      3      4      3      2       109.7           109.6           0.000    
      4      5      3      2       109.7           109.6           0.000    
      5      4      3      3       109.7           109.6           0.000    
      6      5      3      3       109.7           109.6           0.000    
      7      4      3      4       109.7           109.6           0.000    
      8      5      3      4       109.7           109.6           0.000    
      9      4      3      5       109.7           109.6           0.000    
     10      5      3      5       109.7           109.6           0.000    
     11      4      3      6       109.7           109.6           0.000    
     12      5      3      6       109.7           109.6           0.000    
     13      4      3      7       109.7           109.6           0.000    
     14      5      3      7       109.7           109.6           0.000    
     15      4      3      8       109.7           109.6           0.000    
     16      5      3      8       109.7           109.6           0.000    
     17      4      2      8       109.7           109.6           0.000    
     18      5      2      8       109.7           109.6           0.000    
     19      4      2      9       109.7           109.6           0.000    
     20      5      2      9       109.7           109.6           0.000    
     21      4      2     10       109.7           109.6           0.000    
     22      5      2     10       109.7           109.6           0.000    
     23      4      2     11       109.7           109.6           0.000    
     24      5      2     11       109.7           109.6           0.000    
     25      4      2     12       109.7           109.6           0.000    
     26      5      2     12       109.7           109.6           0.000    
     27      4      2     13       109.7           109.6           0.000    
     28      5      2     13       109.7           109.6           0.000    
     29      4      2     14       109.7           109.6           0.000    
     30      5      2     14       109.7           109.6           0.000    
     31      4      2     15       109.7           109.6           0.000    
     32      5      2     15       109.7           109.6           0.000    
     33      4      2     16       109.7           109.6           0.000    
     34      5      2     16       109.7           109.6           0.000    
     35      4      2     17       109.7           109.6           0.000    
     36      5      2     17       109.7           109.6           0.000    
     37      4      2     18       109.7           109.6           0.000    
     38      5      2     18       109.7           109.6           0.000    
     39      4      2     19       109.7           109.6           0.000    
     40      5      2     19       109.7           109.6           0.000    
     41      4      2     20       109.7           109.6           0.000    
     42      5      2     20       109.7           109.6           0.000    
     43      4      2     21       109.7           109.6           0.000    
     44      5      2     21       109.7           109.6           0.000    
     45      4      2     22       109.7           109.6           0.000    
     46      5      2     22       109.7           109.6           0.000    
     47      4      2     23       109.7           109.6           0.000    
     48      5      2     23       109.7           109.6           0.000    
     49      4      2     24       109.7           109.6           0.000    
     50      5      2     24       109.7           109.6           0.000    
     51      4      2     25       109.7           109.6           0.000    
     52      5      2     25       109.7           109.6           0.000    
     53      4      2     26       109.7           109.6           0.000    
     54      5      2     26       109.7           109.6           0.000    
     55      4      1     26       109.7           109.6           0.000    
     56      5      1     26       109.7           109.6           0.000    
     57      4      1     27       109.7           109.6           0.000    
     58      5      1     27       109.7           109.6           0.000    
     59      4      1     28       109.7           109.6           0.000    
     60      5      1     28       109.7           109.6           0.000    
     61      4      1     29       109.7           109.6           0.000    
     62      5      1     29       109.7           109.6           0.000    
     63      4      1     30       109.7           109.6           0.000    
     64      5      1     30       109.7           109.6           0.000    
     65      4      1     31       109.7           109.6           0.000    
     66      5      1     31       109.7           109.6           0.000    
     67      4      1     32       109.7           109.6           0.000    
     68      5      1     32       109.7           109.6           0.000    
     69      4      1     33       109.7           109.6           0.000    
     70      5      1     33       109.7           109.6           0.000    
     71      4      1     34       109.7           109.6           0.000    
     72      5      1     34       109.7           109.6           0.000    
     73      4      1     35       109.7           109.6           0.000    
     74      5      1     35       109.7           109.6           0.000    
     75      4     36     35       109.4           109.3           0.000    
     76      5     36     35       109.4           109.3           0.000    
     77      4     35     34       109.4           109.3           0.000    
     78      5     35     34       109.4           109.3           0.000    
     79      4     36     34       109.4           109.3           0.000    
     80      5     36     34       109.4           109.3           0.000    
     81      4     36     33       109.4           109.3           0.000    
     82      5     36     33       109.4           109.3           0.000    
     83      4     36     32       109.4           109.3           0.000    
     84      5     36     32       109.4           109.3           0.000    
     85      4     37     32       109.4           109.3           0.000    
     86      5     37     32       109.4           109.3           0.000    
     87      4     37     31       109.4           109.3           0.000    
     88      5     37     31       109.4           109.3           0.000    
     89      4     38     31       109.4           109.3           0.000    
     90      5     38     31       109.4           109.3           0.000    
     91      4     38     30       109.4           109.3           0.000    
     92      5     38     30       109.4           109.3           0.000    
     93      4     39     30       109.4           109.3           0.000    
     94      5     39     30       109.4           109.3           0.000    
     95      4     39     29       109.4           109.3           0.000    
     96      5     39     29       109.4           109.3           0.000    
     97      4     40     29       109.4           109.3           0.000    
     98      5     40     29       109.4           109.3           0.000    
     99      4     40     28       109.4           109.3           0.000    
    100      5     40     28       109.4           109.3           0.000    
    101      4     40     27       109.4           109.3           0.000    
    102      5     40     27       109.4           109.3           0.000    
    103      4     41     27       109.4           109.3           0.000    
    104      5     41     27       109.4           109.3           0.000    
    105      4     41     26       109.4           109.3           0.000    
    106      5     41     26       109.4           109.3           0.000    
    107      4     41     25       109.4           109.3           0.000    
    108      5     41     25       109.4           109.3           0.000    
    109      4     41     24       109.4           109.3           0.000    
    110      5     41     24       109.4           109.3           0.000    
    111      4     41     23       109.4           109.3           0.000    
    112      5     41     23       109.4           109.3           0.000    
    113      4     41     22       109.4           109.3           0.000    
    114      5     41     22       109.4           109.3           0.000    
    115      4     42     22       109.4           109.3           0.000    
    116      5     42     22       109.4           109.3           0.000    
    117      4     42     21       109.4           109.3           0.000    
    118      5     42     21       109.4           109.3           0.000    
    119      4     42     20       109.4           109.3           0.000    
    120      5     42     20       109.4           109.3           0.000    
    121      4     42     19       109.4           109.3           0.000    
    122      5     42     19       109.4           109.3           0.000    
    123      4     43     18       109.4           109.3           0.000    
    124      5     43     18       109.4           109.3           0.000    
    125      4     42     18       109.4           109.3           0.000    
    126      5     42     18       109.4           109.3           0.000    
    127      4     42     17       109.4           109.3           0.000    
    128      5     42     17       109.4           109.3           0.000    
    129      4     42     16       109.4           109.3           0.000    
    130      5     42     16       109.4           109.3           0.000    
    131      4     42     15       109.4           109.3           0.000    
    132      5     42     15       109.4           109.3           0.000    
    133      4     43     15       109.4           109.3           0.000    
    134      5     43     15       109.4           109.3           0.000    
    135      4     43     14       109.4           109.3           0.000    
    136      5     43     14       109.4           109.3           0.000    
    137      4     43     13       109.4           109.3           0.000    
    138      5     43     13       109.4           109.3           0.000    
    139      4     43     12       109.4           109.3           0.000    
    140      5     43     12       109.4           109.3           0.000    
    141      4     43     11       109.4           109.3           0.000    
    142      5     43     11       109.4           109.3           0.000    
    143      4     43     10       109.4           109.3           0.000    
    144      5     43     10       109.4           109.3           0.000    
    145      4     44     10       109.4           109.3           0.000    
    146      5     44     10       109.4           109.3           0.000    
    147      4     44      9       109.4           109.3           0.000    
    148      5     44      9       109.4           109.3           0.000    
    149      4     44      8       109.4           109.3           0.000    
    150      5     44      8       109.4           109.3           0.000    
    151      4     44      7       109.4           109.3           0.000    
    152      5     44      7       109.4           109.3           0.000    
    153      4     44      6       109.4           109.3           0.000    
    154      5     44      6       109.4           109.3           0.000    
    155      4     44      5       109.4           109.3           0.000    
    156      5     44      5       109.4           109.3           0.000    
    157      4     44      4       109.4           109.3           0.000    
    158      5     44      4       109.4           109.3           0.000    
    159      4     44      3       109.4           109.3           0.000    
    160      5     44      3       109.4           109.3           0.000    
    161      4     45      3       109.4           109.3           0.000    
    162      5     45      3       109.4           109.3           0.000    
    163      4     45      2       109.4           109.3           0.000    
    164      5     45      2       109.4           109.3           0.000    
    165      4     45      1       109.4           109.3           0.000    
    166      5     45      1       109.4           109.3           0.000    


    166 TIME-VARIANT SPECIFIED-HEAD CELLS

 SOLVING FOR HEAD 


     4 CALLS TO PCG ROUTINE FOR TIME STEP   1 IN STRESS PERIOD   29
    67 TOTAL ITERATIONS

 MAXIMUM HEAD CHANGE FOR EACH ITERATION (1 INDICATES THE FIRST INNER ITERATION):

    HEAD CHANGE    HEAD CHANGE    HEAD CHANGE    HEAD CHANGE    HEAD CHANGE 
   LAYER,ROW,COL  LAYER,ROW,COL  LAYER,ROW,COL  LAYER,ROW,COL  LAYER,ROW,COL
 ---------------------------------------------------------------------------
  1 -0.2882      0  0.1538      0  0.9014E-01  0  0.7751E-01  0 -0.9406E-01
   (  5, 43,  5)  (  5, 35,  1)  (  5, 40,  2)  (  5, 41,  2)  (  5, 37,  1)
  0 -0.5915E-01  0 -0.6234E-01  0  0.6898E-01  0  0.4009E-01  0  0.3175E-01
   (  5, 39,  1)  (  5, 40,  1)  (  5, 37,  1)  (  5, 37,  6)  (  5, 40,  1)
  0  0.2929E-01  0 -0.2803E-01  0  0.1189E-01  0  0.1676E-01  0 -0.1266E-01
   (  5, 35,  9)  (  5, 32,  9)  (  5, 30,  3)  (  5, 30,  9)  (  5, 36,  8)
  0  0.7443E-02  0 -0.8063E-02  0  0.5818E-02  0 -0.4543E-02  0  0.4741E-02
   (  5, 35,  4)  (  5, 34,  1)  (  5, 35,  8)  (  5, 38,  7)  (  5, 38,  4)
  0 -0.3309E-02  0  0.1990E-02  0 -0.1349E-02  0 -0.2265E-02  0  0.1713E-02
   (  5, 37,  1)  (  5, 35,  1)  (  5, 29,  1)  (  5, 14,  1)  (  5, 13,  1)
  0  0.1186E-02  0 -0.8344E-03  0  0.6776E-03  0 -0.6271E-03  0 -0.4538E-03
   (  5, 37,  1)  (  5, 40,  2)  (  5, 36,  3)  (  5, 34,  4)  (  5, 36,  1)
  1  0.3935E-03  0 -0.2903E-03  0 -0.6706E-03  0  0.5037E-03  0  0.4829E-03
   (  5, 35,  1)  (  5, 30,  1)  (  5, 37,  1)  (  5, 34,  1)  (  5, 39,  2)
  0  0.3561E-03  0  0.2731E-03  0  0.2513E-03  0  0.2766E-03  0 -0.1099E-03
   (  5, 32,  5)  (  5, 25,  7)  (  5, 35,  3)  (  5, 41,  1)  (  5, 39,  1)
  0 -0.1372E-03  0  0.1015E-03  0 -0.4974E-04  0 -0.6739E-04  0  0.4756E-04
   (  5, 39,  1)  (  5, 32,  8)  (  5, 29,  1)  (  5, 34,  8)  (  5, 33, 10)
  0  0.3567E-04  0  0.2812E-04  0 -0.1981E-04  0 -0.2127E-04  0 -0.2201E-04
   (  5, 39,  1)  (  5, 39,  1)  (  5, 32,  1)  (  5, 28, 10)  (  5, 37,  9)
  0  0.1658E-04  0  0.9980E-05  0 -0.7352E-05  0  0.1130E-04  0 -0.6727E-05
   (  5, 37,  7)  (  5, 32,  5)  (  5, 35,  5)  (  5, 35,  2)  (  5, 35,  1)
  0  0.5643E-05  0 -0.3926E-05  0  0.3384E-05  0 -0.1334E-05  0  0.1317E-05
   (  5, 15,  1)  (  5, 15,  1)  (  5, 43,  6)  (  5, 33,  3)  (  5, 36,  2)
  1 -0.1269E-05  0  0.1052E-05  0 -0.1097E-05  0 -0.1123E-05  0 -0.1582E-05
   (  5, 35,  1)  (  5, 33,  3)  (  5, 29,  5)  (  5, 31,  1)  (  5, 35,  2)
  0  0.6597E-06  1 -0.5293E-06
   (  5, 37,  3)  (  5, 38,  5)

 MAXIMUM RESIDUAL FOR EACH ITERATION (1 INDICATES THE FIRST INNER ITERATION):

    RESIDUAL       RESIDUAL       RESIDUAL       RESIDUAL       RESIDUAL    
   LAYER,ROW,COL  LAYER,ROW,COL  LAYER,ROW,COL  LAYER,ROW,COL  LAYER,ROW,COL
 ---------------------------------------------------------------------------
  1  0.8787E-03  0  0.7096E-03  0  0.6519E-03  0  0.5817E-03  0  0.4792E-03
   (  4, 44,  2)  (  4, 35, 35)  (  4, 35, 35)  (  4, 35, 35)  (  4, 35, 35)
  0  0.3876E-03  0 -0.3368E-03  0 -0.2911E-03  0 -0.2392E-03  0 -0.2009E-03
   (  4, 35, 35)  (  4, 43,  6)  (  4, 43,  5)  (  4, 43,  4)  (  4, 43,  4)
  0 -0.1593E-03  0 -0.1316E-03  0 -0.1227E-03  0 -0.9896E-04  0 -0.8286E-04
   (  4, 43,  4)  (  4, 43,  4)  (  4, 43,  4)  (  4, 44,  2)  (  4, 44,  2)
  0 -0.7379E-04  0 -0.6408E-04  0 -0.4972E-04  0 -0.3953E-04  0 -0.3136E-04
   (  4, 44,  2)  (  4, 44,  2)  (  4, 44,  2)  (  4, 44,  2)  (  4, 44,  2)
  0 -0.2699E-04  0 -0.1990E-04  0 -0.1884E-04  0 -0.1315E-04  0 -0.1020E-04
   (  4, 44,  2)  (  4, 44,  2)  (  4, 44,  2)  (  4, 34, 35)  (  4, 34, 35)
  0 -0.7927E-05  0 -0.7045E-05  0 -0.5898E-05  0 -0.5017E-05  0 -0.3535E-05
   (  4, 34, 35)  (  4, 34, 35)  (  4, 34, 35)  (  4, 34, 35)  (  4, 34, 35)
  1 -0.3328E-05  0 -0.3235E-05  0 -0.2775E-05  0 -0.2345E-05  0 -0.1937E-05
   (  4, 34, 35)  (  4, 34, 35)  (  4, 34, 35)  (  4, 34, 35)  (  4, 34, 35)
  0 -0.1421E-05  0 -0.1045E-05  0 -0.9462E-06  0 -0.1005E-05  0 -0.8899E-06
   (  4, 34, 35)  (  4, 34, 35)  (  4, 43,  1)  (  4, 43,  1)  (  4, 43,  1)
  0 -0.7213E-06  0 -0.5873E-06  0 -0.5553E-06  0 -0.4152E-06  0 -0.2877E-06
   (  4, 43,  1)  (  4, 43,  1)  (  4, 43,  1)  (  4, 43,  1)  (  4, 44,  1)
  0 -0.1770E-06  0  0.1461E-06  0  0.1411E-06  0  0.1289E-06  0  0.1082E-06
   (  4, 44,  1)  (  4, 44,  2)  (  4, 44,  2)  (  4, 44,  2)  (  4, 44,  2)
  0  0.8479E-07  0  0.7615E-07  0  0.6908E-07  0  0.5411E-07  0  0.3878E-07
   (  4, 44,  2)  (  4, 44,  2)  (  4, 44,  2)  (  4, 44,  2)  (  4, 44,  2)
  0  0.2755E-07  0  0.1816E-07  0 -0.1522E-07  0 -0.1471E-07  0 -0.1399E-07
   (  4, 44,  2)  (  4, 44,  2)  (  4, 43,  2)  (  4, 43,  2)  (  4, 43,  2)
  1 -0.1293E-07  0 -0.1236E-07  0 -0.1140E-07  0 -0.8498E-08  0  0.6373E-08
   (  4, 43,  2)  (  4, 43,  2)  (  4, 43,  2)  (  4, 43,  2)  (  4, 43,  3)
  0  0.5469E-08  1  0.5437E-08
   (  4, 43,  3)  (  4, 43,  3)



 OUTPUT CONTROL FOR STRESS PERIOD   29   TIME STEP    1
    SAVE HEAD FOR ALL LAYERS
    SAVE DRAWDOWN FOR ALL LAYERS
    SAVE BUDGET
    PRINT BUDGET
 UBDSV1 SAVING "         STORAGE" ON UNIT   9 AT TIME STEP  1, STRESS PERIOD  29
 UBDSV2 SAVING "   CONSTANT HEAD" ON UNIT   9 AT TIME STEP  1, STRESS PERIOD  29
 UBDSV1 SAVING "FLOW RIGHT FACE " ON UNIT   9 AT TIME STEP  1, STRESS PERIOD  29
 UBDSV1 SAVING "FLOW FRONT FACE " ON UNIT   9 AT TIME STEP  1, STRESS PERIOD  29
 UBDSV1 SAVING "FLOW LOWER FACE " ON UNIT   9 AT TIME STEP  1, STRESS PERIOD  29
 UBDSV3 SAVING "        RECHARGE" ON UNIT   9 AT TIME STEP  1, STRESS PERIOD  29

 HEAD WILL BE SAVED ON UNIT   37 AT END OF TIME STEP    1, STRESS PERIOD   29

 DRAWDOWN WILL BE SAVED ON UNIT   38 AT END OF TIME STEP    1, STRESS PERIOD   29
1
  VOLUMETRIC BUDGET FOR ENTIRE MODEL AT END OF TIME STEP    1, STRESS PERIOD  29
  ------------------------------------------------------------------------------

     CUMULATIVE VOLUMES      L**3       RATES FOR THIS TIME STEP      L**3/T
     ------------------                 ------------------------

           IN:                                      IN:
           ---                                      ---
             STORAGE =        7668.2974               STORAGE =       3.1784E-03
       CONSTANT HEAD =        9153.3604         CONSTANT HEAD =       1.7062E-03
            RECHARGE =         379.4295              RECHARGE =       1.0213E-04

            TOTAL IN =       17201.0879              TOTAL IN =       4.9868E-03

          OUT:                                     OUT:
          ----                                     ----
             STORAGE =        2774.0127               STORAGE =           0.0000
       CONSTANT HEAD =       14427.5146         CONSTANT HEAD =       4.9870E-03
            RECHARGE =           0.0000              RECHARGE =           0.0000

           TOTAL OUT =       17201.5273             TOTAL OUT =       4.9870E-03

            IN - OUT =          -0.4395              IN - OUT =      -1.9977E-07

 PERCENT DISCREPANCY =          -0.00     PERCENT DISCREPANCY =          -0.00






         TIME SUMMARY AT END OF TIME STEP    1 IN STRESS PERIOD   29
                    SECONDS     MINUTES      HOURS       DAYS        YEARS
                    -----------------------------------------------------------
   TIME STEP LENGTH  86400.      1440.0      24.000      1.0000     2.73785E-03
 STRESS PERIOD TIME  86400.      1440.0      24.000      1.0000     2.73785E-03
         TOTAL TIME 3.71520E+06  61920.      1032.0      43.000     0.11773    
1
1
                            STRESS PERIOD NO.   30, LENGTH =   86400.00    
                            -----------------------------------------------

                              NUMBER OF TIME STEPS =     1

                               MULTIPLIER FOR DELT =     1.000

                            INITIAL TIME STEP SIZE =   86400.00    

 REUSING RECH FROM LAST STRESS PERIOD

 CHD NO.   LAYER   ROW   COL    START HEAD        END HEAD         IFACE           
 ----------------------------------------------------------------------------------
      1      4      3      1       109.6           109.6           0.000    
      2      5      3      1       109.6           109.6           0.000    
      3      4      3      2       109.6           109.6           0.000    
      4      5      3      2       109.6           109.6           0.000    
      5      4      3      3       109.6           109.6           0.000    
      6      5      3      3       109.6           109.6           0.000    
      7      4      3      4       109.6           109.6           0.000    
      8      5      3      4       109.6           109.6           0.000    
      9      4      3      5       109.6           109.6           0.000    
     10      5      3      5       109.6           109.6           0.000    
     11      4      3      6       109.6           109.6           0.000    
     12      5      3      6       109.6           109.6           0.000    
     13      4      3      7       109.6           109.6           0.000    
     14      5      3      7       109.6           109.6           0.000    
     15      4      3      8       109.6           109.6           0.000    
     16      5      3      8       109.6           109.6           0.000    
     17      4      2      8       109.6           109.6           0.000    
     18      5      2      8       109.6           109.6           0.000    
     19      4      2      9       109.6           109.6           0.000    
     20      5      2      9       109.6           109.6           0.000    
     21      4      2     10       109.6           109.6           0.000    
     22      5      2     10       109.6           109.6           0.000    
     23      4      2     11       109.6           109.6           0.000    
     24      5      2     11       109.6           109.6           0.000    
     25      4      2     12       109.6           109.6           0.000    
     26      5      2     12       109.6           109.6           0.000    
     27      4      2     13       109.6           109.6           0.000    
     28      5      2     13       109.6           109.6           0.000    
     29      4      2     14       109.6           109.6           0.000    
     30      5      2     14       109.6           109.6           0.000    
     31      4      2     15       109.6           109.6           0.000    
     32      5      2     15       109.6           109.6           0.000    
     33      4      2     16       109.6           109.6           0.000    
     34      5      2     16       109.6           109.6           0.000    
     35      4      2     17       109.6           109.6           0.000    
     36      5      2     17       109.6           109.6           0.000    
     37      4      2     18       109.6           109.6           0.000    
     38      5      2     18       109.6           109.6           0.000    
     39      4      2     19       109.6           109.6           0.000    
     40      5      2     19       109.6           109.6           0.000    
     41      4      2     20       109.6           109.6           0.000    
     42      5      2     20       109.6           109.6           0.000    
     43      4      2     21       109.6           109.6           0.000    
     44      5      2     21       109.6           109.6           0.000    
     45      4      2     22       109.6           109.6           0.000    
     46      5      2     22       109.6           109.6           0.000    
     47      4      2     23       109.6           109.6           0.000    
     48      5      2     23       109.6           109.6           0.000    
     49      4      2     24       109.6           109.6           0.000    
     50      5      2     24       109.6           109.6           0.000    
     51      4      2     25       109.6           109.6           0.000    
     52      5      2     25       109.6           109.6           0.000    
     53      4      2     26       109.6           109.6           0.000    
     54      5      2     26       109.6           109.6           0.000    
     55      4      1     26       109.6           109.6           0.000    
     56      5      1     26       109.6           109.6           0.000    
     57      4      1     27       109.6           109.6           0.000    
     58      5      1     27       109.6           109.6           0.000    
     59      4      1     28       109.6           109.6           0.000    
     60      5      1     28       109.6           109.6           0.000    
     61      4      1     29       109.6           109.6           0.000    
     62      5      1     29       109.6           109.6           0.000    
     63      4      1     30       109.6           109.6           0.000    
     64      5      1     30       109.6           109.6           0.000    
     65      4      1     31       109.6           109.6           0.000    
     66      5      1     31       109.6           109.6           0.000    
     67      4      1     32       109.6           109.6           0.000    
     68      5      1     32       109.6           109.6           0.000    
     69      4      1     33       109.6           109.6           0.000    
     70      5      1     33       109.6           109.6           0.000    
     71      4      1     34       109.6           109.6           0.000    
     72      5      1     34       109.6           109.6           0.000    
     73      4      1     35       109.6           109.6           0.000    
     74      5      1     35       109.6           109.6           0.000    
     75      4     36     35       109.3           109.3           0.000    
     76      5     36     35       109.3           109.3           0.000    
     77      4     35     34       109.3           109.3           0.000    
     78      5     35     34       109.3           109.3           0.000    
     79      4     36     34       109.3           109.3           0.000    
     80      5     36     34       109.3           109.3           0.000    
     81      4     36     33       109.3           109.3           0.000    
     82      5     36     33       109.3           109.3           0.000    
     83      4     36     32       109.3           109.3           0.000    
     84      5     36     32       109.3           109.3           0.000    
     85      4     37     32       109.3           109.3           0.000    
     86      5     37     32       109.3           109.3           0.000    
     87      4     37     31       109.3           109.3           0.000    
     88      5     37     31       109.3           109.3           0.000    
     89      4     38     31       109.3           109.3           0.000    
     90      5     38     31       109.3           109.3           0.000    
     91      4     38     30       109.3           109.3           0.000    
     92      5     38     30       109.3           109.3           0.000    
     93      4     39     30       109.3           109.3           0.000    
     94      5     39     30       109.3           109.3           0.000    
     95      4     39     29       109.3           109.3           0.000    
     96      5     39     29       109.3           109.3           0.000    
     97      4     40     29       109.3           109.3           0.000    
     98      5     40     29       109.3           109.3           0.000    
     99      4     40     28       109.3           109.3           0.000    
    100      5     40     28       109.3           109.3           0.000    
    101      4     40     27       109.3           109.3           0.000    
    102      5     40     27       109.3           109.3           0.000    
    103      4     41     27       109.3           109.3           0.000    
    104      5     41     27       109.3           109.3           0.000    
    105      4     41     26       109.3           109.3           0.000    
    106      5     41     26       109.3           109.3           0.000    
    107      4     41     25       109.3           109.3           0.000    
    108      5     41     25       109.3           109.3           0.000    
    109      4     41     24       109.3           109.3           0.000    
    110      5     41     24       109.3           109.3           0.000    
    111      4     41     23       109.3           109.3           0.000    
    112      5     41     23       109.3           109.3           0.000    
    113      4     41     22       109.3           109.3           0.000    
    114      5     41     22       109.3           109.3           0.000    
    115      4     42     22       109.3           109.3           0.000    
    116      5     42     22       109.3           109.3           0.000    
    117      4     42     21       109.3           109.3           0.000    
    118      5     42     21       109.3           109.3           0.000    
    119      4     42     20       109.3           109.3           0.000    
    120      5     42     20       109.3           109.3           0.000    
    121      4     42     19       109.3           109.3           0.000    
    122      5     42     19       109.3           109.3           0.000    
    123      4     43     18       109.3           109.3           0.000    
    124      5     43     18       109.3           109.3           0.000    
    125      4     42     18       109.3           109.3           0.000    
    126      5     42     18       109.3           109.3           0.000    
    127      4     42     17       109.3           109.3           0.000    
    128      5     42     17       109.3           109.3           0.000    
    129      4     42     16       109.3           109.3           0.000    
    130      5     42     16       109.3           109.3           0.000    
    131      4     42     15       109.3           109.2           0.000    
    132      5     42     15       109.3           109.2           0.000    
    133      4     43     15       109.3           109.2           0.000    
    134      5     43     15       109.3           109.2           0.000    
    135      4     43     14       109.3           109.2           0.000    
    136      5     43     14       109.3           109.2           0.000    
    137      4     43     13       109.3           109.2           0.000    
    138      5     43     13       109.3           109.2           0.000    
    139      4     43     12       109.3           109.2           0.000    
    140      5     43     12       109.3           109.2           0.000    
    141      4     43     11       109.3           109.2           0.000    
    142      5     43     11       109.3           109.2           0.000    
    143      4     43     10       109.3           109.2           0.000    
    144      5     43     10       109.3           109.2           0.000    
    145      4     44     10       109.3           109.2           0.000    
    146      5     44     10       109.3           109.2           0.000    
    147      4     44      9       109.3           109.2           0.000    
    148      5     44      9       109.3           109.2           0.000    
    149      4     44      8       109.3           109.2           0.000    
    150      5     44      8       109.3           109.2           0.000    
    151      4     44      7       109.3           109.2           0.000    
    152      5     44      7       109.3           109.2           0.000    
    153      4     44      6       109.3           109.2           0.000    
    154      5     44      6       109.3           109.2           0.000    
    155      4     44      5       109.3           109.2           0.000    
    156      5     44      5       109.3           109.2           0.000    
    157      4     44      4       109.3           109.2           0.000    
    158      5     44      4       109.3           109.2           0.000    
    159      4     44      3       109.3           109.2           0.000    
    160      5     44      3       109.3           109.2           0.000    
    161      4     45      3       109.3           109.2           0.000    
    162      5     45      3       109.3           109.2           0.000    
    163      4     45      2       109.3           109.2           0.000    
    164      5     45      2       109.3           109.2           0.000    
    165      4     45      1       109.3           109.2           0.000    
    166      5     45      1       109.3           109.2           0.000    


    166 TIME-VARIANT SPECIFIED-HEAD CELLS

 SOLVING FOR HEAD 


     3 CALLS TO PCG ROUTINE FOR TIME STEP   1 IN STRESS PERIOD   30
    60 TOTAL ITERATIONS

 MAXIMUM HEAD CHANGE FOR EACH ITERATION (1 INDICATES THE FIRST INNER ITERATION):

    HEAD CHANGE    HEAD CHANGE    HEAD CHANGE    HEAD CHANGE    HEAD CHANGE 
   LAYER,ROW,COL  LAYER,ROW,COL  LAYER,ROW,COL  LAYER,ROW,COL  LAYER,ROW,COL
 ---------------------------------------------------------------------------
  1 -0.1707      0  0.6438E-01  0  0.5340E-01  0  0.4439E-01  0 -0.5446E-01
   (  5, 43,  5)  (  5, 34,  1)  (  5, 39,  1)  (  5, 41,  1)  (  5, 37,  1)
  0 -0.4038E-01  0 -0.3329E-01  0  0.3663E-01  0  0.2142E-01  0  0.1745E-01
   (  5, 39,  1)  (  5, 40,  1)  (  5, 37,  1)  (  5, 37,  6)  (  5, 40,  1)
  0  0.1590E-01  0 -0.1471E-01  0  0.7321E-02  0  0.1012E-01  0 -0.6991E-02
   (  5, 35,  9)  (  5, 33,  9)  (  5, 30,  3)  (  5, 30,  9)  (  5, 36,  8)
  0  0.4019E-02  0 -0.4177E-02  0  0.3324E-02  0  0.2564E-02  0  0.2431E-02
   (  5, 35,  4)  (  5, 34,  1)  (  5, 35,  8)  (  5, 31, 11)  (  5, 36,  7)
  0  0.1859E-02  0 -0.1163E-02  0  0.1241E-02  0 -0.1213E-02  0  0.9822E-03
   (  5, 32,  4)  (  5, 29,  4)  (  5, 35,  1)  (  5, 32, 11)  (  5, 13,  1)
  0 -0.6437E-03  0  0.3573E-03  0 -0.5051E-03  0  0.3911E-03  0 -0.2969E-03
   (  5, 13,  1)  (  5, 33,  2)  (  5, 35,  1)  (  5, 38,  1)  (  5, 41,  2)
  1  0.2837E-03  0  0.3168E-03  0  0.3843E-03  0  0.4737E-03  0  0.5113E-03
   (  5, 32,  2)  (  5, 34,  1)  (  5, 27,  5)  (  5, 29,  2)  (  5, 35,  1)
  0  0.2637E-03  0  0.2753E-03  0  0.2463E-03  0  0.1471E-03  0 -0.1122E-03
   (  5, 31,  8)  (  5, 34,  6)  (  5, 40,  1)  (  5, 31,  9)  (  5, 30,  9)
  0  0.1094E-03  0 -0.5173E-04  0  0.5896E-04  0  0.4603E-04  0  0.3726E-04
   (  5, 29, 11)  (  5, 31,  5)  (  5, 26,  1)  (  5, 25, 11)  (  5, 36,  8)
  0  0.2508E-04  0  0.2494E-04  0 -0.1624E-04  0  0.1646E-04  0 -0.1199E-04
   (  5, 30, 10)  (  5, 33,  2)  (  5, 31,  1)  (  5, 32,  5)  (  5, 41,  1)
  0 -0.1046E-04  0 -0.5549E-05  0  0.5126E-05  0 -0.5658E-05  0 -0.5930E-05
   (  5, 14,  1)  (  5, 27,  2)  (  5, 28,  4)  (  5, 36,  1)  (  5, 13,  1)
  0  0.3027E-05  0 -0.2382E-05  0  0.1384E-05  0  0.8693E-06  1 -0.8297E-06
   (  5, 12,  1)  (  5, 13,  2)  (  5, 42,  6)  (  5, 42,  1)  (  5, 28,  7)

 MAXIMUM RESIDUAL FOR EACH ITERATION (1 INDICATES THE FIRST INNER ITERATION):

    RESIDUAL       RESIDUAL       RESIDUAL       RESIDUAL       RESIDUAL    
   LAYER,ROW,COL  LAYER,ROW,COL  LAYER,ROW,COL  LAYER,ROW,COL  LAYER,ROW,COL
 ---------------------------------------------------------------------------
  1  0.4701E-03  0  0.4350E-03  0  0.4000E-03  0  0.3549E-03  0  0.2905E-03
   (  4, 35, 35)  (  4, 35, 35)  (  4, 35, 35)  (  4, 35, 35)  (  4, 35, 35)
  0  0.2279E-03  0 -0.1881E-03  0 -0.1629E-03  0 -0.1352E-03  0 -0.1129E-03
   (  4, 35, 35)  (  4, 43,  6)  (  4, 43,  5)  (  4, 43,  4)  (  4, 43,  4)
  0 -0.8919E-04  0 -0.7546E-04  0 -0.6973E-04  0 -0.5464E-04  0 -0.4608E-04
   (  4, 43,  4)  (  4, 43,  4)  (  4, 43,  4)  (  4, 43,  4)  (  4, 44,  2)
  0 -0.4258E-04  0 -0.3626E-04  0 -0.2846E-04  0 -0.2235E-04  0 -0.1676E-04
   (  4, 44,  2)  (  4, 44,  2)  (  4, 44,  2)  (  4, 44,  2)  (  4, 44,  2)
  0 -0.1356E-04  0 -0.1211E-04  0 -0.1081E-04  0 -0.7789E-05  0 -0.5851E-05
   (  4, 44,  2)  (  4, 44,  2)  (  4, 44,  2)  (  4, 34, 35)  (  4, 34, 35)
  0 -0.4467E-05  0 -0.4079E-05  0 -0.3319E-05  0 -0.2768E-05  0 -0.1924E-05
   (  4, 34, 35)  (  4, 34, 35)  (  4, 34, 35)  (  4, 34, 35)  (  4, 34, 35)
  1 -0.1899E-05  0 -0.1809E-05  0 -0.1620E-05  0 -0.1375E-05  0 -0.1199E-05
   (  4, 34, 35)  (  4, 34, 35)  (  4, 34, 35)  (  4, 43,  3)  (  4, 43,  3)
  0 -0.1056E-05  0 -0.9203E-06  0 -0.8297E-06  0 -0.6550E-06  0 -0.4996E-06
   (  4, 37,  1)  (  4, 37,  1)  (  4, 44,  2)  (  4, 44,  2)  (  4, 43,  1)
  0 -0.4066E-06  0 -0.3341E-06  0 -0.2858E-06  0  0.2354E-06  0  0.2153E-06
   (  4, 43,  1)  (  4, 43,  1)  (  4, 43,  1)  (  4, 43,  2)  (  4, 43,  2)
  0  0.1853E-06  0  0.1466E-06  0  0.1191E-06  0  0.9845E-07  0  0.8655E-07
   (  4, 43,  2)  (  4, 43,  2)  (  4, 43,  2)  (  4, 44,  2)  (  4, 44,  2)
  0  0.6244E-07  0  0.5505E-07  0  0.4654E-07  0  0.3711E-07  0 -0.2746E-07
   (  4, 44,  2)  (  4, 44,  2)  (  4, 44,  2)  (  4, 44,  2)  (  4, 42,  2)
  0 -0.1755E-07  0 -0.1404E-07  0 -0.1080E-07  0 -0.7691E-08  1 -0.8117E-08
   (  4, 43,  2)  (  4, 43,  2)  (  4, 43,  2)  (  4, 43,  2)  (  3, 30,  4)



 OUTPUT CONTROL FOR STRESS PERIOD   30   TIME STEP    1
    SAVE HEAD FOR ALL LAYERS
    SAVE DRAWDOWN FOR ALL LAYERS
    SAVE BUDGET
    PRINT BUDGET
 UBDSV1 SAVING "         STORAGE" ON UNIT   9 AT TIME STEP  1, STRESS PERIOD  30
 UBDSV2 SAVING "   CONSTANT HEAD" ON UNIT   9 AT TIME STEP  1, STRESS PERIOD  30
 UBDSV1 SAVING "FLOW RIGHT FACE " ON UNIT   9 AT TIME STEP  1, STRESS PERIOD  30
 UBDSV1 SAVING "FLOW FRONT FACE " ON UNIT   9 AT TIME STEP  1, STRESS PERIOD  30
 UBDSV1 SAVING "FLOW LOWER FACE " ON UNIT   9 AT TIME STEP  1, STRESS PERIOD  30
 UBDSV3 SAVING "        RECHARGE" ON UNIT   9 AT TIME STEP  1, STRESS PERIOD  30

 HEAD WILL BE SAVED ON UNIT   37 AT END OF TIME STEP    1, STRESS PERIOD   30

 DRAWDOWN WILL BE SAVED ON UNIT   38 AT END OF TIME STEP    1, STRESS PERIOD   30
1
  VOLUMETRIC BUDGET FOR ENTIRE MODEL AT END OF TIME STEP    1, STRESS PERIOD  30
  ------------------------------------------------------------------------------

     CUMULATIVE VOLUMES      L**3       RATES FOR THIS TIME STEP      L**3/T
     ------------------                 ------------------------

           IN:                                      IN:
           ---                                      ---
             STORAGE =        7864.2632               STORAGE =       2.2681E-03
       CONSTANT HEAD =        9340.2217         CONSTANT HEAD =       2.1627E-03
            RECHARGE =         388.2534              RECHARGE =       1.0213E-04

            TOTAL IN =       17592.7383              TOTAL IN =       4.5330E-03

          OUT:                                     OUT:
          ----                                     ----
             STORAGE =        2774.0127               STORAGE =           0.0000
       CONSTANT HEAD =       14819.1787         CONSTANT HEAD =       4.5331E-03
            RECHARGE =           0.0000              RECHARGE =           0.0000

           TOTAL OUT =       17593.1914             TOTAL OUT =       4.5331E-03

            IN - OUT =          -0.4531              IN - OUT =      -1.5087E-07

 PERCENT DISCREPANCY =          -0.00     PERCENT DISCREPANCY =          -0.00






         TIME SUMMARY AT END OF TIME STEP    1 IN STRESS PERIOD   30
                    SECONDS     MINUTES      HOURS       DAYS        YEARS
                    -----------------------------------------------------------
   TIME STEP LENGTH  86400.      1440.0      24.000      1.0000     2.73785E-03
 STRESS PERIOD TIME  86400.      1440.0      24.000      1.0000     2.73785E-03
         TOTAL TIME 3.80160E+06  63360.      1056.0      44.000     0.12047    
1
1
                            STRESS PERIOD NO.   31, LENGTH =   86400.00    
                            -----------------------------------------------

                              NUMBER OF TIME STEPS =     1

                               MULTIPLIER FOR DELT =     1.000

                            INITIAL TIME STEP SIZE =   86400.00    

 REUSING RECH FROM LAST STRESS PERIOD

 CHD NO.   LAYER   ROW   COL    START HEAD        END HEAD         IFACE           
 ----------------------------------------------------------------------------------
      1      4      3      1       109.6           109.5           0.000    
      2      5      3      1       109.6           109.5           0.000    
      3      4      3      2       109.6           109.5           0.000    
      4      5      3      2       109.6           109.5           0.000    
      5      4      3      3       109.6           109.5           0.000    
      6      5      3      3       109.6           109.5           0.000    
      7      4      3      4       109.6           109.5           0.000    
      8      5      3      4       109.6           109.5           0.000    
      9      4      3      5       109.6           109.5           0.000    
     10      5      3      5       109.6           109.5           0.000    
     11      4      3      6       109.6           109.5           0.000    
     12      5      3      6       109.6           109.5           0.000    
     13      4      3      7       109.6           109.5           0.000    
     14      5      3      7       109.6           109.5           0.000    
     15      4      3      8       109.6           109.5           0.000    
     16      5      3      8       109.6           109.5           0.000    
     17      4      2      8       109.6           109.5           0.000    
     18      5      2      8       109.6           109.5           0.000    
     19      4      2      9       109.6           109.5           0.000    
     20      5      2      9       109.6           109.5           0.000    
     21      4      2     10       109.6           109.5           0.000    
     22      5      2     10       109.6           109.5           0.000    
     23      4      2     11       109.6           109.5           0.000    
     24      5      2     11       109.6           109.5           0.000    
     25      4      2     12       109.6           109.5           0.000    
     26      5      2     12       109.6           109.5           0.000    
     27      4      2     13       109.6           109.5           0.000    
     28      5      2     13       109.6           109.5           0.000    
     29      4      2     14       109.6           109.5           0.000    
     30      5      2     14       109.6           109.5           0.000    
     31      4      2     15       109.6           109.5           0.000    
     32      5      2     15       109.6           109.5           0.000    
     33      4      2     16       109.6           109.5           0.000    
     34      5      2     16       109.6           109.5           0.000    
     35      4      2     17       109.6           109.5           0.000    
     36      5      2     17       109.6           109.5           0.000    
     37      4      2     18       109.6           109.5           0.000    
     38      5      2     18       109.6           109.5           0.000    
     39      4      2     19       109.6           109.5           0.000    
     40      5      2     19       109.6           109.5           0.000    
     41      4      2     20       109.6           109.5           0.000    
     42      5      2     20       109.6           109.5           0.000    
     43      4      2     21       109.6           109.5           0.000    
     44      5      2     21       109.6           109.5           0.000    
     45      4      2     22       109.6           109.5           0.000    
     46      5      2     22       109.6           109.5           0.000    
     47      4      2     23       109.6           109.5           0.000    
     48      5      2     23       109.6           109.5           0.000    
     49      4      2     24       109.6           109.5           0.000    
     50      5      2     24       109.6           109.5           0.000    
     51      4      2     25       109.6           109.5           0.000    
     52      5      2     25       109.6           109.5           0.000    
     53      4      2     26       109.6           109.5           0.000    
     54      5      2     26       109.6           109.5           0.000    
     55      4      1     26       109.6           109.5           0.000    
     56      5      1     26       109.6           109.5           0.000    
     57      4      1     27       109.6           109.5           0.000    
     58      5      1     27       109.6           109.5           0.000    
     59      4      1     28       109.6           109.5           0.000    
     60      5      1     28       109.6           109.5           0.000    
     61      4      1     29       109.6           109.5           0.000    
     62      5      1     29       109.6           109.5           0.000    
     63      4      1     30       109.6           109.5           0.000    
     64      5      1     30       109.6           109.5           0.000    
     65      4      1     31       109.6           109.5           0.000    
     66      5      1     31       109.6           109.5           0.000    
     67      4      1     32       109.6           109.5           0.000    
     68      5      1     32       109.6           109.5           0.000    
     69      4      1     33       109.6           109.5           0.000    
     70      5      1     33       109.6           109.5           0.000    
     71      4      1     34       109.6           109.5           0.000    
     72      5      1     34       109.6           109.5           0.000    
     73      4      1     35       109.6           109.5           0.000    
     74      5      1     35       109.6           109.5           0.000    
     75      4     36     35       109.3           109.2           0.000    
     76      5     36     35       109.3           109.2           0.000    
     77      4     35     34       109.3           109.2           0.000    
     78      5     35     34       109.3           109.2           0.000    
     79      4     36     34       109.3           109.2           0.000    
     80      5     36     34       109.3           109.2           0.000    
     81      4     36     33       109.3           109.2           0.000    
     82      5     36     33       109.3           109.2           0.000    
     83      4     36     32       109.3           109.2           0.000    
     84      5     36     32       109.3           109.2           0.000    
     85      4     37     32       109.3           109.2           0.000    
     86      5     37     32       109.3           109.2           0.000    
     87      4     37     31       109.3           109.2           0.000    
     88      5     37     31       109.3           109.2           0.000    
     89      4     38     31       109.3           109.2           0.000    
     90      5     38     31       109.3           109.2           0.000    
     91      4     38     30       109.3           109.2           0.000    
     92      5     38     30       109.3           109.2           0.000    
     93      4     39     30       109.3           109.2           0.000    
     94      5     39     30       109.3           109.2           0.000    
     95      4     39     29       109.3           109.2           0.000    
     96      5     39     29       109.3           109.2           0.000    
     97      4     40     29       109.3           109.2           0.000    
     98      5     40     29       109.3           109.2           0.000    
     99      4     40     28       109.3           109.2           0.000    
    100      5     40     28       109.3           109.2           0.000    
    101      4     40     27       109.3           109.2           0.000    
    102      5     40     27       109.3           109.2           0.000    
    103      4     41     27       109.3           109.2           0.000    
    104      5     41     27       109.3           109.2           0.000    
    105      4     41     26       109.3           109.2           0.000    
    106      5     41     26       109.3           109.2           0.000    
    107      4     41     25       109.3           109.2           0.000    
    108      5     41     25       109.3           109.2           0.000    
    109      4     41     24       109.3           109.2           0.000    
    110      5     41     24       109.3           109.2           0.000    
    111      4     41     23       109.3           109.2           0.000    
    112      5     41     23       109.3           109.2           0.000    
    113      4     41     22       109.3           109.2           0.000    
    114      5     41     22       109.3           109.2           0.000    
    115      4     42     22       109.3           109.2           0.000    
    116      5     42     22       109.3           109.2           0.000    
    117      4     42     21       109.3           109.2           0.000    
    118      5     42     21       109.3           109.2           0.000    
    119      4     42     20       109.3           109.2           0.000    
    120      5     42     20       109.3           109.2           0.000    
    121      4     42     19       109.3           109.2           0.000    
    122      5     42     19       109.3           109.2           0.000    
    123      4     43     18       109.3           109.2           0.000    
    124      5     43     18       109.3           109.2           0.000    
    125      4     42     18       109.3           109.2           0.000    
    126      5     42     18       109.3           109.2           0.000    
    127      4     42     17       109.3           109.2           0.000    
    128      5     42     17       109.3           109.2           0.000    
    129      4     42     16       109.3           109.2           0.000    
    130      5     42     16       109.3           109.2           0.000    
    131      4     42     15       109.2           109.2           0.000    
    132      5     42     15       109.2           109.2           0.000    
    133      4     43     15       109.2           109.2           0.000    
    134      5     43     15       109.2           109.2           0.000    
    135      4     43     14       109.2           109.2           0.000    
    136      5     43     14       109.2           109.2           0.000    
    137      4     43     13       109.2           109.2           0.000    
    138      5     43     13       109.2           109.2           0.000    
    139      4     43     12       109.2           109.2           0.000    
    140      5     43     12       109.2           109.2           0.000    
    141      4     43     11       109.2           109.2           0.000    
    142      5     43     11       109.2           109.2           0.000    
    143      4     43     10       109.2           109.2           0.000    
    144      5     43     10       109.2           109.2           0.000    
    145      4     44     10       109.2           109.2           0.000    
    146      5     44     10       109.2           109.2           0.000    
    147      4     44      9       109.2           109.1           0.000    
    148      5     44      9       109.2           109.1           0.000    
    149      4     44      8       109.2           109.1           0.000    
    150      5     44      8       109.2           109.1           0.000    
    151      4     44      7       109.2           109.1           0.000    
    152      5     44      7       109.2           109.1           0.000    
    153      4     44      6       109.2           109.1           0.000    
    154      5     44      6       109.2           109.1           0.000    
    155      4     44      5       109.2           109.1           0.000    
    156      5     44      5       109.2           109.1           0.000    
    157      4     44      4       109.2           109.1           0.000    
    158      5     44      4       109.2           109.1           0.000    
    159      4     44      3       109.2           109.1           0.000    
    160      5     44      3       109.2           109.1           0.000    
    161      4     45      3       109.2           109.1           0.000    
    162      5     45      3       109.2           109.1           0.000    
    163      4     45      2       109.2           109.1           0.000    
    164      5     45      2       109.2           109.1           0.000    
    165      4     45      1       109.2           109.1           0.000    
    166      5     45      1       109.2           109.1           0.000    


    166 TIME-VARIANT SPECIFIED-HEAD CELLS

 SOLVING FOR HEAD 


     4 CALLS TO PCG ROUTINE FOR TIME STEP   1 IN STRESS PERIOD   31
    69 TOTAL ITERATIONS

 MAXIMUM HEAD CHANGE FOR EACH ITERATION (1 INDICATES THE FIRST INNER ITERATION):

    HEAD CHANGE    HEAD CHANGE    HEAD CHANGE    HEAD CHANGE    HEAD CHANGE 
   LAYER,ROW,COL  LAYER,ROW,COL  LAYER,ROW,COL  LAYER,ROW,COL  LAYER,ROW,COL
 ---------------------------------------------------------------------------
  1 -0.3263      0  0.9126E-01  0  0.1234      0 -0.1414      0  0.8258E-01
   (  5, 43,  5)  (  5, 39,  1)  (  5, 40,  1)  (  5, 36,  1)  (  5, 32,  1)
  0 -0.7250E-01  0 -0.4877E-01  0  0.5770E-01  0 -0.3641E-01  0  0.2699E-01
   (  5, 40,  1)  (  5, 33,  2)  (  5, 38,  1)  (  5, 35,  1)  (  5, 39,  5)
  0 -0.2369E-01  0 -0.1521E-01  0  0.1148E-01  0  0.8501E-02  0 -0.8878E-02
   (  5, 38,  1)  (  5, 33, 10)  (  5, 30,  9)  (  5, 27,  2)  (  5, 35,  8)
  0  0.9182E-02  0 -0.5587E-02  0  0.5116E-02  0 -0.4209E-02  0  0.2073E-02
   (  5, 33,  8)  (  5, 32,  9)  (  5, 36,  8)  (  5, 33,  7)  (  5, 33,  4)
  0 -0.1993E-02  0 -0.2026E-02  0 -0.1032E-02  0  0.9142E-03  0 -0.9974E-03
   (  5, 30,  1)  (  5, 14,  1)  (  5, 25,  2)  (  5, 28,  1)  (  5, 34,  1)
  0  0.7405E-03  0 -0.5995E-03  0  0.4549E-03  0 -0.3089E-03  0 -0.2907E-03
   (  5, 36,  3)  (  5, 36,  1)  (  5, 35,  7)  (  5, 33,  6)  (  5, 37,  1)
  1  0.1376E-02  0  0.8915E-03  0  0.1977E-02  0  0.1090E-02  0  0.1300E-02
   (  5, 29,  5)  (  3, 28,  5)  (  5, 31,  1)  (  5, 26,  2)  (  5, 36,  1)
  0  0.6103E-03  0  0.5122E-03  0  0.4528E-03  0  0.2741E-03  0 -0.2071E-03
   (  5, 20,  3)  (  5, 35, 12)  (  5, 38,  1)  (  5, 31,  1)  (  5, 34, 12)
  0 -0.1665E-03  0  0.1627E-03  0  0.1152E-03  0  0.8759E-04  0  0.5785E-04
   (  5, 14,  1)  (  5, 27,  1)  (  5, 25,  5)  (  5, 23, 11)  (  5, 13,  1)
  0  0.4039E-04  0  0.3833E-04  0 -0.2713E-04  0  0.2245E-04  0 -0.2024E-04
   (  5, 30,  9)  (  5, 27,  1)  (  5, 32,  1)  (  5, 27,  4)  (  5, 13,  1)
  0  0.1439E-04  0 -0.9961E-05  0 -0.8355E-05  0 -0.5078E-05  0  0.2993E-05
   (  5, 37,  3)  (  5, 39,  1)  (  5, 14,  2)  (  5, 13,  4)  (  5, 35,  1)
  0 -0.3251E-05  0  0.2251E-05  0 -0.1807E-05  0  0.1210E-05  0 -0.9566E-06
   (  5, 38,  3)  (  5, 40,  2)  (  5, 14,  1)  (  5, 31,  1)  (  5, 30,  1)
  1  0.3551E-05  0 -0.4421E-05  0  0.3624E-05  0 -0.3774E-05  0  0.1961E-05
   (  5, 33,  1)  (  5, 35,  1)  (  5, 34,  1)  (  5, 24,  1)  (  5, 29,  3)
  0  0.2058E-05  0 -0.1760E-05  0  0.9243E-06  1 -0.6643E-06
   (  5, 37,  1)  (  5, 37,  1)  (  5, 18,  3)  (  5, 22,  6)

 MAXIMUM RESIDUAL FOR EACH ITERATION (1 INDICATES THE FIRST INNER ITERATION):

    RESIDUAL       RESIDUAL       RESIDUAL       RESIDUAL       RESIDUAL    
   LAYER,ROW,COL  LAYER,ROW,COL  LAYER,ROW,COL  LAYER,ROW,COL  LAYER,ROW,COL
 ---------------------------------------------------------------------------
  1  0.9233E-03  0  0.8436E-03  0  0.7467E-03  0  0.5894E-03  0  0.4996E-03
   (  4, 35, 35)  (  4, 35, 35)  (  4, 35, 35)  (  4, 35, 35)  (  3, 40, 27)
  0  0.4195E-03  0  0.3412E-03  0  0.2749E-03  0 -0.2311E-03  0 -0.1928E-03
   (  3, 40, 27)  (  3, 40, 27)  (  3, 40, 27)  (  4, 43,  4)  (  4, 43,  4)
  0 -0.1486E-03  0 -0.1132E-03  0 -0.9069E-04  0 -0.8234E-04  0 -0.6913E-04
   (  4, 43,  4)  (  4, 43,  4)  (  4, 43,  4)  (  4, 43,  4)  (  4, 44,  2)
  0 -0.5374E-04  0 -0.4041E-04  0 -0.2938E-04  0 -0.2330E-04  0 -0.2055E-04
   (  4, 44,  2)  (  4, 44,  2)  (  4, 44,  2)  (  4, 34, 35)  (  4, 34, 35)
  0 -0.1778E-04  0 -0.1416E-04  0 -0.1279E-04  0 -0.1075E-04  0 -0.9163E-05
   (  4, 34, 35)  (  4, 34, 35)  (  4, 34, 35)  (  4, 34, 35)  (  4, 34, 35)
  0 -0.7472E-05  0 -0.5337E-05  0 -0.3720E-05  0 -0.2655E-05  0 -0.2094E-05
   (  4, 34, 35)  (  4, 34, 35)  (  4, 34, 35)  (  4, 34, 35)  (  4, 34, 35)
  1 -0.2854E-05  0 -0.2496E-05  0 -0.2288E-05  0 -0.2717E-05  0 -0.1911E-05
   (  3, 39,  4)  (  3, 39,  4)  (  4, 34,  1)  (  4, 30,  1)  (  4, 38,  1)
  0 -0.1819E-05  0 -0.1560E-05  0 -0.1583E-05  0 -0.1239E-05  0 -0.1076E-05
   (  4, 38,  1)  (  4, 40,  1)  (  4, 41,  1)  (  4, 42,  1)  (  4, 43,  1)
  0 -0.7975E-06  0  0.6392E-06  0  0.5328E-06  0  0.4293E-06  0  0.3390E-06
   (  4, 43,  1)  (  4, 43,  4)  (  4, 43,  4)  (  4, 43,  2)  (  4, 43,  2)
  0  0.2826E-06  0  0.2490E-06  0  0.2281E-06  0  0.1772E-06  0  0.1260E-06
   (  4, 44,  2)  (  4, 44,  2)  (  4, 44,  2)  (  4, 44,  2)  (  4, 44,  2)
  0  0.9119E-07  0  0.7110E-07  0 -0.4446E-07  0 -0.3842E-07  0 -0.2988E-07
   (  4, 44,  2)  (  4, 44,  2)  (  4, 42,  2)  (  4, 43,  2)  (  4, 43,  2)
  0 -0.2360E-07  0 -0.1777E-07  0 -0.1008E-07  0  0.7077E-08  0  0.5625E-08
   (  4, 43,  2)  (  4, 43,  2)  (  4, 43,  2)  (  4, 43,  3)  (  4, 43,  3)
  1 -0.3873E-07  0 -0.2831E-07  0 -0.1690E-07  0 -0.1037E-07  0  0.5252E-08
   (  3, 22,  8)  (  3, 22,  8)  (  3, 22,  8)  (  3, 22,  8)  (  4, 26,  1)
  0 -0.4998E-08  0 -0.3601E-08  0 -0.3173E-08  1 -0.2895E-08
   (  4, 42,  1)  (  4, 42,  1)  (  4, 39,  4)  (  4, 39,  4)



 OUTPUT CONTROL FOR STRESS PERIOD   31   TIME STEP    1
    SAVE HEAD FOR ALL LAYERS
    SAVE DRAWDOWN FOR ALL LAYERS
    SAVE BUDGET
    PRINT BUDGET
 UBDSV1 SAVING "         STORAGE" ON UNIT   9 AT TIME STEP  1, STRESS PERIOD  31
 UBDSV2 SAVING "   CONSTANT HEAD" ON UNIT   9 AT TIME STEP  1, STRESS PERIOD  31
 UBDSV1 SAVING "FLOW RIGHT FACE " ON UNIT   9 AT TIME STEP  1, STRESS PERIOD  31
 UBDSV1 SAVING "FLOW FRONT FACE " ON UNIT   9 AT TIME STEP  1, STRESS PERIOD  31
 UBDSV1 SAVING "FLOW LOWER FACE " ON UNIT   9 AT TIME STEP  1, STRESS PERIOD  31
 UBDSV3 SAVING "        RECHARGE" ON UNIT   9 AT TIME STEP  1, STRESS PERIOD  31

 HEAD WILL BE SAVED ON UNIT   37 AT END OF TIME STEP    1, STRESS PERIOD   31

 DRAWDOWN WILL BE SAVED ON UNIT   38 AT END OF TIME STEP    1, STRESS PERIOD   31
1
  VOLUMETRIC BUDGET FOR ENTIRE MODEL AT END OF TIME STEP    1, STRESS PERIOD  31
  ------------------------------------------------------------------------------

     CUMULATIVE VOLUMES      L**3       RATES FOR THIS TIME STEP      L**3/T
     ------------------                 ------------------------

           IN:                                      IN:
           ---                                      ---
             STORAGE =        8143.1841               STORAGE =       3.2282E-03
       CONSTANT HEAD =        9535.4346         CONSTANT HEAD =       2.2594E-03
            RECHARGE =         397.0774              RECHARGE =       1.0213E-04

            TOTAL IN =       18075.6973              TOTAL IN =       5.5898E-03

          OUT:                                     OUT:
          ----                                     ----
             STORAGE =        2774.0127               STORAGE =           0.0000
       CONSTANT HEAD =       15302.1455         CONSTANT HEAD =       5.5899E-03
            RECHARGE =           0.0000              RECHARGE =           0.0000

           TOTAL OUT =       18076.1582             TOTAL OUT =       5.5899E-03

            IN - OUT =          -0.4609              IN - OUT =      -1.0943E-07

 PERCENT DISCREPANCY =          -0.00     PERCENT DISCREPANCY =          -0.00






         TIME SUMMARY AT END OF TIME STEP    1 IN STRESS PERIOD   31
                    SECONDS     MINUTES      HOURS       DAYS        YEARS
                    -----------------------------------------------------------
   TIME STEP LENGTH  86400.      1440.0      24.000      1.0000     2.73785E-03
 STRESS PERIOD TIME  86400.      1440.0      24.000      1.0000     2.73785E-03
         TOTAL TIME 3.88800E+06  64800.      1080.0      45.000     0.12320    
1
1
                            STRESS PERIOD NO.   32, LENGTH =   86400.00    
                            -----------------------------------------------

                              NUMBER OF TIME STEPS =     1

                               MULTIPLIER FOR DELT =     1.000

                            INITIAL TIME STEP SIZE =   86400.00    

 REUSING RECH FROM LAST STRESS PERIOD

 CHD NO.   LAYER   ROW   COL    START HEAD        END HEAD         IFACE           
 ----------------------------------------------------------------------------------
      1      4      3      1       109.5           109.5           0.000    
      2      5      3      1       109.5           109.5           0.000    
      3      4      3      2       109.5           109.5           0.000    
      4      5      3      2       109.5           109.5           0.000    
      5      4      3      3       109.5           109.5           0.000    
      6      5      3      3       109.5           109.5           0.000    
      7      4      3      4       109.5           109.5           0.000    
      8      5      3      4       109.5           109.5           0.000    
      9      4      3      5       109.5           109.5           0.000    
     10      5      3      5       109.5           109.5           0.000    
     11      4      3      6       109.5           109.5           0.000    
     12      5      3      6       109.5           109.5           0.000    
     13      4      3      7       109.5           109.5           0.000    
     14      5      3      7       109.5           109.5           0.000    
     15      4      3      8       109.5           109.5           0.000    
     16      5      3      8       109.5           109.5           0.000    
     17      4      2      8       109.5           109.5           0.000    
     18      5      2      8       109.5           109.5           0.000    
     19      4      2      9       109.5           109.5           0.000    
     20      5      2      9       109.5           109.5           0.000    
     21      4      2     10       109.5           109.5           0.000    
     22      5      2     10       109.5           109.5           0.000    
     23      4      2     11       109.5           109.5           0.000    
     24      5      2     11       109.5           109.5           0.000    
     25      4      2     12       109.5           109.5           0.000    
     26      5      2     12       109.5           109.5           0.000    
     27      4      2     13       109.5           109.5           0.000    
     28      5      2     13       109.5           109.5           0.000    
     29      4      2     14       109.5           109.5           0.000    
     30      5      2     14       109.5           109.5           0.000    
     31      4      2     15       109.5           109.5           0.000    
     32      5      2     15       109.5           109.5           0.000    
     33      4      2     16       109.5           109.5           0.000    
     34      5      2     16       109.5           109.5           0.000    
     35      4      2     17       109.5           109.5           0.000    
     36      5      2     17       109.5           109.5           0.000    
     37      4      2     18       109.5           109.5           0.000    
     38      5      2     18       109.5           109.5           0.000    
     39      4      2     19       109.5           109.5           0.000    
     40      5      2     19       109.5           109.5           0.000    
     41      4      2     20       109.5           109.5           0.000    
     42      5      2     20       109.5           109.5           0.000    
     43      4      2     21       109.5           109.5           0.000    
     44      5      2     21       109.5           109.5           0.000    
     45      4      2     22       109.5           109.5           0.000    
     46      5      2     22       109.5           109.5           0.000    
     47      4      2     23       109.5           109.5           0.000    
     48      5      2     23       109.5           109.5           0.000    
     49      4      2     24       109.5           109.5           0.000    
     50      5      2     24       109.5           109.5           0.000    
     51      4      2     25       109.5           109.5           0.000    
     52      5      2     25       109.5           109.5           0.000    
     53      4      2     26       109.5           109.5           0.000    
     54      5      2     26       109.5           109.5           0.000    
     55      4      1     26       109.5           109.5           0.000    
     56      5      1     26       109.5           109.5           0.000    
     57      4      1     27       109.5           109.5           0.000    
     58      5      1     27       109.5           109.5           0.000    
     59      4      1     28       109.5           109.5           0.000    
     60      5      1     28       109.5           109.5           0.000    
     61      4      1     29       109.5           109.5           0.000    
     62      5      1     29       109.5           109.5           0.000    
     63      4      1     30       109.5           109.5           0.000    
     64      5      1     30       109.5           109.5           0.000    
     65      4      1     31       109.5           109.5           0.000    
     66      5      1     31       109.5           109.5           0.000    
     67      4      1     32       109.5           109.5           0.000    
     68      5      1     32       109.5           109.5           0.000    
     69      4      1     33       109.5           109.5           0.000    
     70      5      1     33       109.5           109.5           0.000    
     71      4      1     34       109.5           109.5           0.000    
     72      5      1     34       109.5           109.5           0.000    
     73      4      1     35       109.5           109.5           0.000    
     74      5      1     35       109.5           109.5           0.000    
     75      4     36     35       109.2           109.2           0.000    
     76      5     36     35       109.2           109.2           0.000    
     77      4     35     34       109.2           109.2           0.000    
     78      5     35     34       109.2           109.2           0.000    
     79      4     36     34       109.2           109.2           0.000    
     80      5     36     34       109.2           109.2           0.000    
     81      4     36     33       109.2           109.2           0.000    
     82      5     36     33       109.2           109.2           0.000    
     83      4     36     32       109.2           109.2           0.000    
     84      5     36     32       109.2           109.2           0.000    
     85      4     37     32       109.2           109.2           0.000    
     86      5     37     32       109.2           109.2           0.000    
     87      4     37     31       109.2           109.2           0.000    
     88      5     37     31       109.2           109.2           0.000    
     89      4     38     31       109.2           109.2           0.000    
     90      5     38     31       109.2           109.2           0.000    
     91      4     38     30       109.2           109.2           0.000    
     92      5     38     30       109.2           109.2           0.000    
     93      4     39     30       109.2           109.2           0.000    
     94      5     39     30       109.2           109.2           0.000    
     95      4     39     29       109.2           109.2           0.000    
     96      5     39     29       109.2           109.2           0.000    
     97      4     40     29       109.2           109.2           0.000    
     98      5     40     29       109.2           109.2           0.000    
     99      4     40     28       109.2           109.2           0.000    
    100      5     40     28       109.2           109.2           0.000    
    101      4     40     27       109.2           109.2           0.000    
    102      5     40     27       109.2           109.2           0.000    
    103      4     41     27       109.2           109.2           0.000    
    104      5     41     27       109.2           109.2           0.000    
    105      4     41     26       109.2           109.2           0.000    
    106      5     41     26       109.2           109.2           0.000    
    107      4     41     25       109.2           109.2           0.000    
    108      5     41     25       109.2           109.2           0.000    
    109      4     41     24       109.2           109.2           0.000    
    110      5     41     24       109.2           109.2           0.000    
    111      4     41     23       109.2           109.2           0.000    
    112      5     41     23       109.2           109.2           0.000    
    113      4     41     22       109.2           109.2           0.000    
    114      5     41     22       109.2           109.2           0.000    
    115      4     42     22       109.2           109.2           0.000    
    116      5     42     22       109.2           109.2           0.000    
    117      4     42     21       109.2           109.2           0.000    
    118      5     42     21       109.2           109.2           0.000    
    119      4     42     20       109.2           109.1           0.000    
    120      5     42     20       109.2           109.1           0.000    
    121      4     42     19       109.2           109.1           0.000    
    122      5     42     19       109.2           109.1           0.000    
    123      4     43     18       109.2           109.1           0.000    
    124      5     43     18       109.2           109.1           0.000    
    125      4     42     18       109.2           109.1           0.000    
    126      5     42     18       109.2           109.1           0.000    
    127      4     42     17       109.2           109.1           0.000    
    128      5     42     17       109.2           109.1           0.000    
    129      4     42     16       109.2           109.1           0.000    
    130      5     42     16       109.2           109.1           0.000    
    131      4     42     15       109.2           109.1           0.000    
    132      5     42     15       109.2           109.1           0.000    
    133      4     43     15       109.2           109.1           0.000    
    134      5     43     15       109.2           109.1           0.000    
    135      4     43     14       109.2           109.1           0.000    
    136      5     43     14       109.2           109.1           0.000    
    137      4     43     13       109.2           109.1           0.000    
    138      5     43     13       109.2           109.1           0.000    
    139      4     43     12       109.2           109.1           0.000    
    140      5     43     12       109.2           109.1           0.000    
    141      4     43     11       109.2           109.1           0.000    
    142      5     43     11       109.2           109.1           0.000    
    143      4     43     10       109.2           109.1           0.000    
    144      5     43     10       109.2           109.1           0.000    
    145      4     44     10       109.2           109.1           0.000    
    146      5     44     10       109.2           109.1           0.000    
    147      4     44      9       109.1           109.1           0.000    
    148      5     44      9       109.1           109.1           0.000    
    149      4     44      8       109.1           109.1           0.000    
    150      5     44      8       109.1           109.1           0.000    
    151      4     44      7       109.1           109.1           0.000    
    152      5     44      7       109.1           109.1           0.000    
    153      4     44      6       109.1           109.1           0.000    
    154      5     44      6       109.1           109.1           0.000    
    155      4     44      5       109.1           109.1           0.000    
    156      5     44      5       109.1           109.1           0.000    
    157      4     44      4       109.1           109.1           0.000    
    158      5     44      4       109.1           109.1           0.000    
    159      4     44      3       109.1           109.1           0.000    
    160      5     44      3       109.1           109.1           0.000    
    161      4     45      3       109.1           109.1           0.000    
    162      5     45      3       109.1           109.1           0.000    
    163      4     45      2       109.1           109.1           0.000    
    164      5     45      2       109.1           109.1           0.000    
    165      4     45      1       109.1           109.1           0.000    
    166      5     45      1       109.1           109.1           0.000    


    166 TIME-VARIANT SPECIFIED-HEAD CELLS

 SOLVING FOR HEAD 


     3 CALLS TO PCG ROUTINE FOR TIME STEP   1 IN STRESS PERIOD   32
    55 TOTAL ITERATIONS

 MAXIMUM HEAD CHANGE FOR EACH ITERATION (1 INDICATES THE FIRST INNER ITERATION):

    HEAD CHANGE    HEAD CHANGE    HEAD CHANGE    HEAD CHANGE    HEAD CHANGE 
   LAYER,ROW,COL  LAYER,ROW,COL  LAYER,ROW,COL  LAYER,ROW,COL  LAYER,ROW,COL
 ---------------------------------------------------------------------------
  1 -0.7490E-01  0  0.5582E-01  0 -0.4086E-01  0 -0.3123E-01  0 -0.2711E-01
   (  3,  4,  4)  (  5, 37,  1)  (  5, 33,  1)  (  5, 38,  1)  (  5, 40,  1)
  0  0.2604E-01  0  0.1357E-01  0  0.1163E-01  0 -0.7001E-02  0 -0.6592E-02
   (  5, 37,  1)  (  5, 33,  5)  (  5, 37,  5)  (  5, 18,  1)  (  5, 36,  5)
  0  0.3897E-02  0  0.3117E-02  0 -0.2645E-02  0  0.2683E-02  0 -0.1575E-02
   (  5, 33,  6)  (  5, 23, 10)  (  5, 36,  9)  (  5, 33,  9)  (  5, 30,  9)
  0 -0.1164E-02  0  0.5989E-03  0  0.5477E-03  0 -0.5553E-03  0  0.3193E-03
   (  5, 32,  8)  (  5, 13,  1)  (  5, 28,  1)  (  5, 32,  1)  (  5, 35,  4)
  0 -0.3797E-03  0  0.2768E-03  0 -0.1815E-03  0  0.1264E-03  0 -0.1138E-03
   (  5, 34,  1)  (  5, 37,  1)  (  5, 27, 11)  (  5, 15,  1)  (  5, 30, 11)
  0  0.5420E-04  0 -0.6910E-04  0 -0.4243E-04  0  0.3366E-04  0 -0.2719E-04
   (  5, 39,  1)  (  5, 37,  1)  (  5, 31,  9)  (  5, 30,  9)  (  5, 30,  6)
  1  0.3293E-03  0  0.5121E-03  0  0.2477E-03  0  0.1698E-03  0  0.1652E-03
   (  5, 23,  9)  (  3, 19,  7)  (  5, 21,  2)  (  3, 19,  7)  (  5, 28,  1)
  0 -0.1023E-03  0  0.9862E-04  0 -0.8118E-04  0  0.6990E-04  0 -0.4497E-04
   (  5, 30,  1)  (  5, 33,  1)  (  5, 36,  2)  (  5, 38,  1)  (  5, 39,  1)
  0  0.4059E-04  0  0.2502E-04  0  0.2267E-04  0 -0.1636E-04  0  0.1333E-04
   (  5, 39,  1)  (  5, 31, 11)  (  5, 14,  1)  (  5, 14,  1)  (  5, 13,  1)
  0  0.4882E-05  0  0.4659E-05  0  0.4034E-05  0 -0.3275E-05  0  0.2959E-05
   (  5, 25,  1)  (  5, 31,  8)  (  5, 31,  1)  (  5, 36,  7)  (  5, 34,  7)
  0 -0.1562E-05  0  0.1382E-05  0 -0.1084E-05  0  0.8879E-06  1  0.6758E-06
   (  5, 32,  5)  (  5, 37,  1)  (  5, 34,  1)  (  5, 37,  5)  (  5, 40,  1)

 MAXIMUM RESIDUAL FOR EACH ITERATION (1 INDICATES THE FIRST INNER ITERATION):

    RESIDUAL       RESIDUAL       RESIDUAL       RESIDUAL       RESIDUAL    
   LAYER,ROW,COL  LAYER,ROW,COL  LAYER,ROW,COL  LAYER,ROW,COL  LAYER,ROW,COL
 ---------------------------------------------------------------------------
  1  0.2450E-03  0  0.2057E-03  0  0.1604E-03  0 -0.1374E-03  0 -0.1161E-03
   (  3,  3,  1)  (  3,  3,  1)  (  3,  3,  1)  (  3,  4,  4)  (  3,  4,  4)
  0 -0.9423E-04  0 -0.7098E-04  0 -0.5410E-04  0 -0.4421E-04  0 -0.3564E-04
   (  3,  4,  3)  (  3,  4,  3)  (  3,  3,  9)  (  3,  3,  9)  (  3,  3,  9)
  0 -0.2712E-04  0 -0.2096E-04  0 -0.1568E-04  0 -0.1151E-04  0 -0.8328E-05
   (  3,  3,  9)  (  3,  3,  9)  (  3,  3,  9)  (  3,  3,  9)  (  3,  3,  9)
  0 -0.6563E-05  0 -0.5275E-05  0 -0.4525E-05  0 -0.3593E-05  0 -0.2739E-05
   (  3,  3,  7)  (  3,  3,  7)  (  3,  3,  7)  (  3,  3,  2)  (  3,  3,  2)
  0 -0.2308E-05  0 -0.1762E-05  0 -0.1266E-05  0 -0.9250E-06  0 -0.6699E-06
   (  3,  3,  2)  (  3,  3,  2)  (  3,  3,  2)  (  3,  3,  2)  (  3,  3,  2)
  0 -0.5066E-06  0 -0.4229E-06  0 -0.2969E-06  0 -0.2031E-06  0 -0.1343E-06
   (  3,  3,  2)  (  3,  3,  2)  (  3,  3,  2)  (  3,  3,  2)  (  3,  3,  2)
  1 -0.1308E-05  0 -0.8158E-06  0 -0.5877E-06  0 -0.3876E-06  0  0.2521E-06
   (  3, 20,  6)  (  3, 20,  8)  (  3, 20,  8)  (  3, 20,  8)  (  4, 20,  8)
  0  0.2584E-06  0  0.2129E-06  0 -0.2577E-06  0 -0.2586E-06  0 -0.2102E-06
   (  4, 20,  8)  (  4, 20,  8)  (  4, 19,  6)  (  4, 19,  6)  (  4, 19,  6)
  0 -0.1720E-06  0 -0.1287E-06  0 -0.8136E-07  0 -0.4132E-07  0  0.2783E-07
   (  4, 19,  6)  (  4, 19,  6)  (  4, 19,  6)  (  4, 19,  6)  (  4, 43,  2)
  0  0.2288E-07  0  0.1625E-07  0  0.1506E-07  0  0.1160E-07  0  0.8139E-08
   (  4, 43,  2)  (  4, 44,  2)  (  4, 44,  2)  (  4, 44,  2)  (  4, 21,  7)
  0  0.6380E-08  0  0.5285E-08  0  0.4118E-08  0  0.2917E-08  1  0.3057E-08
   (  4, 21,  7)  (  4, 21,  7)  (  4, 21,  7)  (  4, 21,  7)  (  4, 21,  7)



 OUTPUT CONTROL FOR STRESS PERIOD   32   TIME STEP    1
    SAVE HEAD FOR ALL LAYERS
    SAVE DRAWDOWN FOR ALL LAYERS
    SAVE BUDGET
    PRINT BUDGET
 UBDSV1 SAVING "         STORAGE" ON UNIT   9 AT TIME STEP  1, STRESS PERIOD  32
 UBDSV2 SAVING "   CONSTANT HEAD" ON UNIT   9 AT TIME STEP  1, STRESS PERIOD  32
 UBDSV1 SAVING "FLOW RIGHT FACE " ON UNIT   9 AT TIME STEP  1, STRESS PERIOD  32
 UBDSV1 SAVING "FLOW FRONT FACE " ON UNIT   9 AT TIME STEP  1, STRESS PERIOD  32
 UBDSV1 SAVING "FLOW LOWER FACE " ON UNIT   9 AT TIME STEP  1, STRESS PERIOD  32
 UBDSV3 SAVING "        RECHARGE" ON UNIT   9 AT TIME STEP  1, STRESS PERIOD  32

 HEAD WILL BE SAVED ON UNIT   37 AT END OF TIME STEP    1, STRESS PERIOD   32

 DRAWDOWN WILL BE SAVED ON UNIT   38 AT END OF TIME STEP    1, STRESS PERIOD   32
1
  VOLUMETRIC BUDGET FOR ENTIRE MODEL AT END OF TIME STEP    1, STRESS PERIOD  32
  ------------------------------------------------------------------------------

     CUMULATIVE VOLUMES      L**3       RATES FOR THIS TIME STEP      L**3/T
     ------------------                 ------------------------

           IN:                                      IN:
           ---                                      ---
             STORAGE =        8315.4854               STORAGE =       1.9942E-03
       CONSTANT HEAD =        9717.7041         CONSTANT HEAD =       2.1096E-03
            RECHARGE =         405.9013              RECHARGE =       1.0213E-04

            TOTAL IN =       18439.0898              TOTAL IN =       4.2060E-03

          OUT:                                     OUT:
          ----                                     ----
             STORAGE =        2774.0127               STORAGE =           0.0000
       CONSTANT HEAD =       15665.5479         CONSTANT HEAD =       4.2060E-03
            RECHARGE =           0.0000              RECHARGE =           0.0000

           TOTAL OUT =       18439.5605             TOTAL OUT =       4.2060E-03

            IN - OUT =          -0.4707              IN - OUT =      -7.6834E-08

 PERCENT DISCREPANCY =          -0.00     PERCENT DISCREPANCY =          -0.00






         TIME SUMMARY AT END OF TIME STEP    1 IN STRESS PERIOD   32
                    SECONDS     MINUTES      HOURS       DAYS        YEARS
                    -----------------------------------------------------------
   TIME STEP LENGTH  86400.      1440.0      24.000      1.0000     2.73785E-03
 STRESS PERIOD TIME  86400.      1440.0      24.000      1.0000     2.73785E-03
         TOTAL TIME 3.97440E+06  66240.      1104.0      46.000     0.12594    
1
1
                            STRESS PERIOD NO.   33, LENGTH =   259200.0    
                            -----------------------------------------------

                              NUMBER OF TIME STEPS =     3

                               MULTIPLIER FOR DELT =     1.000

                            INITIAL TIME STEP SIZE =   86400.00    

 REUSING RECH FROM LAST STRESS PERIOD

 CHD NO.   LAYER   ROW   COL    START HEAD        END HEAD         IFACE           
 ----------------------------------------------------------------------------------
      1      4      3      1       109.5           109.4           0.000    
      2      5      3      1       109.5           109.4           0.000    
      3      4      3      2       109.5           109.4           0.000    
      4      5      3      2       109.5           109.4           0.000    
      5      4      3      3       109.5           109.4           0.000    
      6      5      3      3       109.5           109.4           0.000    
      7      4      3      4       109.5           109.4           0.000    
      8      5      3      4       109.5           109.4           0.000    
      9      4      3      5       109.5           109.4           0.000    
     10      5      3      5       109.5           109.4           0.000    
     11      4      3      6       109.5           109.4           0.000    
     12      5      3      6       109.5           109.4           0.000    
     13      4      3      7       109.5           109.4           0.000    
     14      5      3      7       109.5           109.4           0.000    
     15      4      3      8       109.5           109.4           0.000    
     16      5      3      8       109.5           109.4           0.000    
     17      4      2      8       109.5           109.4           0.000    
     18      5      2      8       109.5           109.4           0.000    
     19      4      2      9       109.5           109.4           0.000    
     20      5      2      9       109.5           109.4           0.000    
     21      4      2     10       109.5           109.4           0.000    
     22      5      2     10       109.5           109.4           0.000    
     23      4      2     11       109.5           109.4           0.000    
     24      5      2     11       109.5           109.4           0.000    
     25      4      2     12       109.5           109.4           0.000    
     26      5      2     12       109.5           109.4           0.000    
     27      4      2     13       109.5           109.4           0.000    
     28      5      2     13       109.5           109.4           0.000    
     29      4      2     14       109.5           109.4           0.000    
     30      5      2     14       109.5           109.4           0.000    
     31      4      2     15       109.5           109.4           0.000    
     32      5      2     15       109.5           109.4           0.000    
     33      4      2     16       109.5           109.4           0.000    
     34      5      2     16       109.5           109.4           0.000    
     35      4      2     17       109.5           109.4           0.000    
     36      5      2     17       109.5           109.4           0.000    
     37      4      2     18       109.5           109.4           0.000    
     38      5      2     18       109.5           109.4           0.000    
     39      4      2     19       109.5           109.4           0.000    
     40      5      2     19       109.5           109.4           0.000    
     41      4      2     20       109.5           109.4           0.000    
     42      5      2     20       109.5           109.4           0.000    
     43      4      2     21       109.5           109.4           0.000    
     44      5      2     21       109.5           109.4           0.000    
     45      4      2     22       109.5           109.4           0.000    
     46      5      2     22       109.5           109.4           0.000    
     47      4      2     23       109.5           109.4           0.000    
     48      5      2     23       109.5           109.4           0.000    
     49      4      2     24       109.5           109.4           0.000    
     50      5      2     24       109.5           109.4           0.000    
     51      4      2     25       109.5           109.4           0.000    
     52      5      2     25       109.5           109.4           0.000    
     53      4      2     26       109.5           109.4           0.000    
     54      5      2     26       109.5           109.4           0.000    
     55      4      1     26       109.5           109.4           0.000    
     56      5      1     26       109.5           109.4           0.000    
     57      4      1     27       109.5           109.4           0.000    
     58      5      1     27       109.5           109.4           0.000    
     59      4      1     28       109.5           109.4           0.000    
     60      5      1     28       109.5           109.4           0.000    
     61      4      1     29       109.5           109.4           0.000    
     62      5      1     29       109.5           109.4           0.000    
     63      4      1     30       109.5           109.4           0.000    
     64      5      1     30       109.5           109.4           0.000    
     65      4      1     31       109.5           109.4           0.000    
     66      5      1     31       109.5           109.4           0.000    
     67      4      1     32       109.5           109.4           0.000    
     68      5      1     32       109.5           109.4           0.000    
     69      4      1     33       109.5           109.4           0.000    
     70      5      1     33       109.5           109.4           0.000    
     71      4      1     34       109.5           109.4           0.000    
     72      5      1     34       109.5           109.4           0.000    
     73      4      1     35       109.5           109.4           0.000    
     74      5      1     35       109.5           109.4           0.000    
     75      4     36     35       109.2           109.1           0.000    
     76      5     36     35       109.2           109.1           0.000    
     77      4     35     34       109.2           109.1           0.000    
     78      5     35     34       109.2           109.1           0.000    
     79      4     36     34       109.2           109.1           0.000    
     80      5     36     34       109.2           109.1           0.000    
     81      4     36     33       109.2           109.1           0.000    
     82      5     36     33       109.2           109.1           0.000    
     83      4     36     32       109.2           109.1           0.000    
     84      5     36     32       109.2           109.1           0.000    
     85      4     37     32       109.2           109.1           0.000    
     86      5     37     32       109.2           109.1           0.000    
     87      4     37     31       109.2           109.1           0.000    
     88      5     37     31       109.2           109.1           0.000    
     89      4     38     31       109.2           109.1           0.000    
     90      5     38     31       109.2           109.1           0.000    
     91      4     38     30       109.2           109.1           0.000    
     92      5     38     30       109.2           109.1           0.000    
     93      4     39     30       109.2           109.1           0.000    
     94      5     39     30       109.2           109.1           0.000    
     95      4     39     29       109.2           109.1           0.000    
     96      5     39     29       109.2           109.1           0.000    
     97      4     40     29       109.2           109.1           0.000    
     98      5     40     29       109.2           109.1           0.000    
     99      4     40     28       109.2           109.1           0.000    
    100      5     40     28       109.2           109.1           0.000    
    101      4     40     27       109.2           109.1           0.000    
    102      5     40     27       109.2           109.1           0.000    
    103      4     41     27       109.2           109.1           0.000    
    104      5     41     27       109.2           109.1           0.000    
    105      4     41     26       109.2           109.1           0.000    
    106      5     41     26       109.2           109.1           0.000    
    107      4     41     25       109.2           109.1           0.000    
    108      5     41     25       109.2           109.1           0.000    
    109      4     41     24       109.2           109.1           0.000    
    110      5     41     24       109.2           109.1           0.000    
    111      4     41     23       109.2           109.1           0.000    
    112      5     41     23       109.2           109.1           0.000    
    113      4     41     22       109.2           109.1           0.000    
    114      5     41     22       109.2           109.1           0.000    
    115      4     42     22       109.2           109.1           0.000    
    116      5     42     22       109.2           109.1           0.000    
    117      4     42     21       109.2           109.1           0.000    
    118      5     42     21       109.2           109.1           0.000    
    119      4     42     20       109.1           109.1           0.000    
    120      5     42     20       109.1           109.1           0.000    
    121      4     42     19       109.1           109.1           0.000    
    122      5     42     19       109.1           109.1           0.000    
    123      4     43     18       109.1           109.1           0.000    
    124      5     43     18       109.1           109.1           0.000    
    125      4     42     18       109.1           109.1           0.000    
    126      5     42     18       109.1           109.1           0.000    
    127      4     42     17       109.1           109.1           0.000    
    128      5     42     17       109.1           109.1           0.000    
    129      4     42     16       109.1           109.1           0.000    
    130      5     42     16       109.1           109.1           0.000    
    131      4     42     15       109.1           109.1           0.000    
    132      5     42     15       109.1           109.1           0.000    
    133      4     43     15       109.1           109.1           0.000    
    134      5     43     15       109.1           109.1           0.000    
    135      4     43     14       109.1           109.1           0.000    
    136      5     43     14       109.1           109.1           0.000    
    137      4     43     13       109.1           109.1           0.000    
    138      5     43     13       109.1           109.1           0.000    
    139      4     43     12       109.1           109.1           0.000    
    140      5     43     12       109.1           109.1           0.000    
    141      4     43     11       109.1           109.1           0.000    
    142      5     43     11       109.1           109.1           0.000    
    143      4     43     10       109.1           109.1           0.000    
    144      5     43     10       109.1           109.1           0.000    
    145      4     44     10       109.1           109.1           0.000    
    146      5     44     10       109.1           109.1           0.000    
    147      4     44      9       109.1           109.1           0.000    
    148      5     44      9       109.1           109.1           0.000    
    149      4     44      8       109.1           109.1           0.000    
    150      5     44      8       109.1           109.1           0.000    
    151      4     44      7       109.1           109.1           0.000    
    152      5     44      7       109.1           109.1           0.000    
    153      4     44      6       109.1           109.1           0.000    
    154      5     44      6       109.1           109.1           0.000    
    155      4     44      5       109.1           109.1           0.000    
    156      5     44      5       109.1           109.1           0.000    
    157      4     44      4       109.1           109.1           0.000    
    158      5     44      4       109.1           109.1           0.000    
    159      4     44      3       109.1           109.1           0.000    
    160      5     44      3       109.1           109.1           0.000    
    161      4     45      3       109.1           109.1           0.000    
    162      5     45      3       109.1           109.1           0.000    
    163      4     45      2       109.1           109.1           0.000    
    164      5     45      2       109.1           109.1           0.000    
    165      4     45      1       109.1           109.1           0.000    
    166      5     45      1       109.1           109.1           0.000    


    166 TIME-VARIANT SPECIFIED-HEAD CELLS

 SOLVING FOR HEAD 


     3 CALLS TO PCG ROUTINE FOR TIME STEP   1 IN STRESS PERIOD   33
    52 TOTAL ITERATIONS

 MAXIMUM HEAD CHANGE FOR EACH ITERATION (1 INDICATES THE FIRST INNER ITERATION):

    HEAD CHANGE    HEAD CHANGE    HEAD CHANGE    HEAD CHANGE    HEAD CHANGE 
   LAYER,ROW,COL  LAYER,ROW,COL  LAYER,ROW,COL  LAYER,ROW,COL  LAYER,ROW,COL
 ---------------------------------------------------------------------------
  1 -0.8017E-01  0  0.4869E-01  0 -0.3438E-01  0 -0.2585E-01  0 -0.2062E-01
   (  5, 43,  5)  (  5, 39,  1)  (  5, 34,  1)  (  5, 39,  1)  (  5, 40,  1)
  0  0.1455E-01  0  0.1245E-01  0  0.8280E-02  0  0.7802E-02  0 -0.5772E-02
   (  5, 37,  1)  (  5, 39,  1)  (  5, 40,  1)  (  5, 39,  5)  (  5, 38,  1)
  0 -0.4934E-02  0  0.3247E-02  0 -0.2210E-02  0  0.1904E-02  0 -0.1368E-02
   (  5, 37,  5)  (  5, 35,  5)  (  5, 36,  9)  (  5, 33,  9)  (  5, 31,  9)
  0 -0.8067E-03  0 -0.5739E-03  0  0.4980E-03  0 -0.4923E-03  0  0.2724E-03
   (  5, 33,  8)  (  5, 30,  1)  (  5, 32,  3)  (  5, 14,  1)  (  5, 13,  1)
  0 -0.2578E-03  0  0.1769E-03  0 -0.1637E-03  0  0.9813E-04  0 -0.7308E-04
   (  5, 35,  1)  (  5, 38,  1)  (  5, 28, 11)  (  5, 32, 10)  (  5, 33,  6)
  0 -0.7231E-04  0  0.3968E-04  0 -0.4090E-04  0  0.1981E-04  0  0.2087E-04
   (  5, 37,  1)  (  5, 28, 10)  (  5, 13,  2)  (  5, 13,  2)  (  5, 37,  1)
  1  0.1032E-03  0  0.1574E-03  0  0.1188E-03  0  0.1046E-03  0 -0.6824E-04
   (  3, 20,  4)  (  5, 31,  1)  (  3, 20,  4)  (  5, 21,  1)  (  5, 25,  2)
  0  0.4983E-04  0  0.5728E-04  0 -0.4509E-04  0 -0.2386E-04  0  0.1923E-04
   (  5, 27,  2)  (  5, 37,  1)  (  5, 38,  1)  (  5, 14,  1)  (  5, 14,  1)
  0 -0.1431E-04  0  0.8990E-05  0 -0.7865E-05  0  0.5700E-05  0  0.4175E-05
   (  5, 14,  1)  (  5, 32, 12)  (  5, 39,  1)  (  5, 39,  1)  (  5, 28,  9)
  0  0.3266E-05  0 -0.2345E-05  0  0.2015E-05  0 -0.1669E-05  0  0.1357E-05
   (  5, 25,  1)  (  5, 31,  1)  (  5, 33,  4)  (  5, 41,  1)  (  5, 40,  1)
  0  0.6435E-06  1 -0.6184E-06
   (  5, 34,  2)  (  5, 35,  2)

 MAXIMUM RESIDUAL FOR EACH ITERATION (1 INDICATES THE FIRST INNER ITERATION):

    RESIDUAL       RESIDUAL       RESIDUAL       RESIDUAL       RESIDUAL    
   LAYER,ROW,COL  LAYER,ROW,COL  LAYER,ROW,COL  LAYER,ROW,COL  LAYER,ROW,COL
 ---------------------------------------------------------------------------
  1  0.1823E-03  0  0.1591E-03  0  0.1249E-03  0 -0.9683E-04  0 -0.9055E-04
   (  4, 35, 35)  (  4, 35, 35)  (  4, 35, 35)  (  4, 43,  6)  (  4, 43,  5)
  0 -0.7871E-04  0 -0.6612E-04  0 -0.5351E-04  0 -0.4260E-04  0 -0.3313E-04
   (  4, 43,  5)  (  4, 43,  4)  (  4, 43,  4)  (  4, 43,  4)  (  4, 43,  4)
  0 -0.2696E-04  0 -0.2128E-04  0 -0.1646E-04  0 -0.1208E-04  0 -0.8571E-05
   (  4, 44,  2)  (  4, 44,  2)  (  4, 44,  2)  (  4, 44,  2)  (  4, 44,  2)
  0 -0.6029E-05  0 -0.4945E-05  0 -0.3841E-05  0 -0.2558E-05  0 -0.1859E-05
   (  4, 44,  2)  (  4, 44,  2)  (  4, 44,  2)  (  4, 44,  2)  (  4, 34, 35)
  0 -0.1548E-05  0 -0.1186E-05  0 -0.8116E-06  0  0.6146E-06  0  0.4727E-06
   (  4, 34, 35)  (  4, 34, 35)  (  4, 34, 35)  (  4, 35, 35)  (  4, 35, 35)
  0  0.4015E-06  0  0.3013E-06  0  0.2186E-06  0 -0.1416E-06  0 -0.1074E-06
   (  4, 35, 35)  (  4, 35, 35)  (  4, 35, 35)  (  3,  3,  2)  (  3,  3,  2)
  1 -0.9770E-06  0 -0.7743E-06  0 -0.5115E-06  0 -0.3540E-06  0 -0.1968E-06
   (  3, 21,  2)  (  3, 21,  2)  (  3, 21,  2)  (  3, 21,  2)  (  3, 21,  2)
  0 -0.1234E-06  0 -0.1096E-06  0 -0.1221E-06  0 -0.8944E-07  0 -0.7608E-07
   (  3, 21,  2)  (  4, 20,  3)  (  4, 20,  3)  (  4, 20,  3)  (  4, 20,  3)
  0 -0.6685E-07  0 -0.4257E-07  0 -0.2505E-07  0 -0.2018E-07  0 -0.1383E-07
   (  4, 20,  3)  (  4, 20,  2)  (  4, 20,  2)  (  4, 20,  2)  (  4, 20,  2)
  0 -0.1199E-07  0 -0.9760E-08  0  0.8369E-08  0  0.5615E-08  0 -0.4278E-08
   (  4, 20,  2)  (  4, 21,  1)  (  4, 19,  1)  (  4, 19,  1)  (  4, 21,  1)
  0 -0.3010E-08  1  0.3068E-08
   (  4, 42,  2)  (  4, 19,  1)



 OUTPUT CONTROL FOR STRESS PERIOD   33   TIME STEP    1
    SAVE HEAD FOR ALL LAYERS
    SAVE DRAWDOWN FOR ALL LAYERS
    SAVE BUDGET
    PRINT BUDGET
 UBDSV1 SAVING "         STORAGE" ON UNIT   9 AT TIME STEP  1, STRESS PERIOD  33
 UBDSV2 SAVING "   CONSTANT HEAD" ON UNIT   9 AT TIME STEP  1, STRESS PERIOD  33
 UBDSV1 SAVING "FLOW RIGHT FACE " ON UNIT   9 AT TIME STEP  1, STRESS PERIOD  33
 UBDSV1 SAVING "FLOW FRONT FACE " ON UNIT   9 AT TIME STEP  1, STRESS PERIOD  33
 UBDSV1 SAVING "FLOW LOWER FACE " ON UNIT   9 AT TIME STEP  1, STRESS PERIOD  33
 UBDSV3 SAVING "        RECHARGE" ON UNIT   9 AT TIME STEP  1, STRESS PERIOD  33

 HEAD WILL BE SAVED ON UNIT   37 AT END OF TIME STEP    1, STRESS PERIOD   33

 DRAWDOWN WILL BE SAVED ON UNIT   38 AT END OF TIME STEP    1, STRESS PERIOD   33
1
  VOLUMETRIC BUDGET FOR ENTIRE MODEL AT END OF TIME STEP    1, STRESS PERIOD  33
  ------------------------------------------------------------------------------

     CUMULATIVE VOLUMES      L**3       RATES FOR THIS TIME STEP      L**3/T
     ------------------                 ------------------------

           IN:                                      IN:
           ---                                      ---
             STORAGE =        8433.2949               STORAGE =       1.3635E-03
       CONSTANT HEAD =        9927.2500         CONSTANT HEAD =       2.4253E-03
            RECHARGE =         414.7253              RECHARGE =       1.0213E-04

            TOTAL IN =       18775.2695              TOTAL IN =       3.8910E-03

          OUT:                                     OUT:
          ----                                     ----
             STORAGE =        2774.0127               STORAGE =           0.0000
       CONSTANT HEAD =       16001.7344         CONSTANT HEAD =       3.8910E-03
            RECHARGE =           0.0000              RECHARGE =           0.0000

           TOTAL OUT =       18775.7461             TOTAL OUT =       3.8910E-03

            IN - OUT =          -0.4766              IN - OUT =      -8.5216E-08

 PERCENT DISCREPANCY =          -0.00     PERCENT DISCREPANCY =          -0.00






         TIME SUMMARY AT END OF TIME STEP    1 IN STRESS PERIOD   33
                    SECONDS     MINUTES      HOURS       DAYS        YEARS
                    -----------------------------------------------------------
   TIME STEP LENGTH  86400.      1440.0      24.000      1.0000     2.73785E-03
 STRESS PERIOD TIME  86400.      1440.0      24.000      1.0000     2.73785E-03
         TOTAL TIME 4.06080E+06  67680.      1128.0      47.000     0.12868    
1

 SOLVING FOR HEAD 
     3 CALLS TO PCG ROUTINE FOR TIME STEP   2 IN STRESS PERIOD   33
    49 TOTAL ITERATIONS

 MAXIMUM HEAD CHANGE FOR EACH ITERATION (1 INDICATES THE FIRST INNER ITERATION):

    HEAD CHANGE    HEAD CHANGE    HEAD CHANGE    HEAD CHANGE    HEAD CHANGE 
   LAYER,ROW,COL  LAYER,ROW,COL  LAYER,ROW,COL  LAYER,ROW,COL  LAYER,ROW,COL
 ---------------------------------------------------------------------------
  1 -0.8088E-01  0  0.4939E-01  0 -0.3542E-01  0  0.2575E-01  0 -0.1830E-01
   (  5, 43,  5)  (  5, 39,  1)  (  5, 35,  1)  (  5, 33,  2)  (  5, 40,  1)
  0  0.1686E-01  0  0.1142E-01  0  0.8634E-02  0  0.7439E-02  0 -0.5569E-02
   (  5, 37,  1)  (  5, 39,  1)  (  5, 40,  1)  (  5, 39,  5)  (  5, 35,  5)
  0 -0.4146E-02  0  0.3032E-02  0 -0.2194E-02  0  0.1606E-02  0  0.1201E-02
   (  5, 37,  5)  (  5, 35,  5)  (  5, 36,  9)  (  5, 34,  9)  (  5, 35,  8)
  0 -0.8748E-03  0  0.5897E-03  0  0.4008E-03  0 -0.4538E-03  0  0.3238E-03
   (  5, 33,  8)  (  5, 14,  1)  (  5, 33,  3)  (  5, 14,  1)  (  5, 13,  1)
  0 -0.2331E-03  0  0.1563E-03  0 -0.1290E-03  0  0.9351E-04  0 -0.8323E-04
   (  5, 35,  1)  (  5, 38,  1)  (  5, 36,  1)  (  5, 32, 10)  (  5, 37,  1)
  0  0.5173E-04  0 -0.4523E-04  0 -0.3946E-04  0  0.2394E-04  0  0.1730E-04
   (  5, 39,  2)  (  5, 38,  1)  (  5, 13,  2)  (  5, 13,  2)  (  5, 37,  1)
  1  0.6679E-04  0  0.3735E-04  0  0.8628E-04  0 -0.4185E-04  0  0.5585E-04
   (  5, 22,  3)  (  3, 20,  3)  (  5, 26,  1)  (  5, 29,  1)  (  5, 33,  1)
  0 -0.3356E-04  0  0.3279E-04  0 -0.2974E-04  0 -0.1128E-04  0  0.7054E-05
   (  5, 35,  2)  (  5, 37,  1)  (  5, 38,  1)  (  5, 15,  1)  (  5, 13,  1)
  0 -0.5704E-05  0  0.4853E-05  0 -0.4305E-05  0 -0.3542E-05  0  0.2769E-05
   (  5, 23,  7)  (  5, 32, 10)  (  5, 40,  1)  (  5, 14,  1)  (  5, 13,  1)
  0 -0.1973E-05  0  0.1416E-05  0 -0.9631E-06  1  0.8544E-06
   (  5, 13,  1)  (  5, 33,  3)  (  5, 32,  1)  (  5, 36,  2)

 MAXIMUM RESIDUAL FOR EACH ITERATION (1 INDICATES THE FIRST INNER ITERATION):

    RESIDUAL       RESIDUAL       RESIDUAL       RESIDUAL       RESIDUAL    
   LAYER,ROW,COL  LAYER,ROW,COL  LAYER,ROW,COL  LAYER,ROW,COL  LAYER,ROW,COL
 ---------------------------------------------------------------------------
  1  0.1729E-03  0  0.1486E-03  0  0.1141E-03  0 -0.9846E-04  0 -0.9091E-04
   (  4, 35, 35)  (  4, 35, 35)  (  4, 35, 35)  (  4, 43,  6)  (  4, 43,  5)
  0 -0.7861E-04  0 -0.6513E-04  0 -0.5296E-04  0 -0.4123E-04  0 -0.3170E-04
   (  4, 43,  5)  (  4, 43,  4)  (  4, 43,  4)  (  4, 43,  4)  (  4, 44,  2)
  0 -0.2623E-04  0 -0.2060E-04  0 -0.1537E-04  0 -0.1118E-04  0 -0.7924E-05
   (  4, 44,  2)  (  4, 44,  2)  (  4, 44,  2)  (  4, 44,  2)  (  4, 44,  2)
  0 -0.5416E-05  0 -0.3910E-05  0 -0.3307E-05  0 -0.2388E-05  0 -0.1777E-05
   (  4, 44,  2)  (  4, 44,  2)  (  4, 44,  2)  (  4, 34, 35)  (  4, 34, 35)
  0 -0.1358E-05  0 -0.1120E-05  0 -0.7827E-06  0  0.5808E-06  0  0.4445E-06
   (  4, 34, 35)  (  4, 34, 35)  (  4, 34, 35)  (  4, 35, 35)  (  4, 35, 35)
  0  0.3796E-06  0  0.2819E-06  0  0.2057E-06  0  0.1333E-06  0 -0.8994E-07
   (  4, 35, 35)  (  4, 35, 35)  (  4, 35, 35)  (  4, 35, 35)  (  3,  3,  2)
  1 -0.4724E-06  0 -0.3442E-06  0 -0.2220E-06  0 -0.1648E-06  0 -0.1202E-06
   (  3, 42,  5)  (  3, 42,  5)  (  3, 21,  1)  (  3, 21,  1)  (  3, 21,  1)
  0 -0.8751E-07  0 -0.6148E-07  0 -0.4776E-07  0 -0.3624E-07  0 -0.3106E-07
   (  3, 21,  1)  (  3, 21,  1)  (  4, 20,  2)  (  2,  2, 26)  (  4, 20,  2)
  0 -0.2880E-07  0 -0.1943E-07  0  0.1554E-07  0  0.1052E-07  0 -0.7460E-08
   (  4, 20,  2)  (  4, 20,  2)  (  4, 43,  2)  (  4, 43,  2)  (  3, 43,  6)
  0 -0.5813E-08  0 -0.4566E-08  0 -0.4000E-08  1 -0.3733E-08
   (  4, 20,  1)  (  2,  2, 26)  (  2,  2, 26)  (  2,  2, 26)



 OUTPUT CONTROL FOR STRESS PERIOD   33   TIME STEP    2
    SAVE HEAD FOR ALL LAYERS
    SAVE DRAWDOWN FOR ALL LAYERS
    SAVE BUDGET
    PRINT BUDGET
 UBDSV1 SAVING "         STORAGE" ON UNIT   9 AT TIME STEP  2, STRESS PERIOD  33
 UBDSV2 SAVING "   CONSTANT HEAD" ON UNIT   9 AT TIME STEP  2, STRESS PERIOD  33
 UBDSV1 SAVING "FLOW RIGHT FACE " ON UNIT   9 AT TIME STEP  2, STRESS PERIOD  33
 UBDSV1 SAVING "FLOW FRONT FACE " ON UNIT   9 AT TIME STEP  2, STRESS PERIOD  33
 UBDSV1 SAVING "FLOW LOWER FACE " ON UNIT   9 AT TIME STEP  2, STRESS PERIOD  33
 UBDSV3 SAVING "        RECHARGE" ON UNIT   9 AT TIME STEP  2, STRESS PERIOD  33

 HEAD WILL BE SAVED ON UNIT   37 AT END OF TIME STEP    2, STRESS PERIOD   33

 DRAWDOWN WILL BE SAVED ON UNIT   38 AT END OF TIME STEP    2, STRESS PERIOD   33
1
  VOLUMETRIC BUDGET FOR ENTIRE MODEL AT END OF TIME STEP    2, STRESS PERIOD  33
  ------------------------------------------------------------------------------

     CUMULATIVE VOLUMES      L**3       RATES FOR THIS TIME STEP      L**3/T
     ------------------                 ------------------------

           IN:                                      IN:
           ---                                      ---
             STORAGE =        8535.0098               STORAGE =       1.1773E-03
       CONSTANT HEAD =       10139.5859         CONSTANT HEAD =       2.4576E-03
            RECHARGE =         423.5492              RECHARGE =       1.0213E-04

            TOTAL IN =       19098.1445              TOTAL IN =       3.7370E-03

          OUT:                                     OUT:
          ----                                     ----
             STORAGE =        2774.0127               STORAGE =           0.0000
       CONSTANT HEAD =       16324.6143         CONSTANT HEAD =       3.7370E-03
            RECHARGE =           0.0000              RECHARGE =           0.0000

           TOTAL OUT =       19098.6270             TOTAL OUT =       3.7370E-03

            IN - OUT =          -0.4824              IN - OUT =      -5.8906E-08

 PERCENT DISCREPANCY =          -0.00     PERCENT DISCREPANCY =          -0.00






         TIME SUMMARY AT END OF TIME STEP    2 IN STRESS PERIOD   33
                    SECONDS     MINUTES      HOURS       DAYS        YEARS
                    -----------------------------------------------------------
   TIME STEP LENGTH  86400.      1440.0      24.000      1.0000     2.73785E-03
 STRESS PERIOD TIME 1.72800E+05  2880.0      48.000      2.0000     5.47570E-03
         TOTAL TIME 4.14720E+06  69120.      1152.0      48.000     0.13142    
1

 SOLVING FOR HEAD 
     3 CALLS TO PCG ROUTINE FOR TIME STEP   3 IN STRESS PERIOD   33
    50 TOTAL ITERATIONS

 MAXIMUM HEAD CHANGE FOR EACH ITERATION (1 INDICATES THE FIRST INNER ITERATION):

    HEAD CHANGE    HEAD CHANGE    HEAD CHANGE    HEAD CHANGE    HEAD CHANGE 
   LAYER,ROW,COL  LAYER,ROW,COL  LAYER,ROW,COL  LAYER,ROW,COL  LAYER,ROW,COL
 ---------------------------------------------------------------------------
  1 -0.8025E-01  0  0.4873E-01  0 -0.3425E-01  0  0.2613E-01  0 -0.1835E-01
   (  5, 43,  5)  (  5, 39,  1)  (  5, 35,  1)  (  5, 33,  2)  (  5, 30,  2)
  0  0.1803E-01  0  0.1019E-01  0  0.8498E-02  0  0.7148E-02  0 -0.5465E-02
   (  5, 37,  1)  (  5, 39,  1)  (  5, 40,  1)  (  5, 39,  5)  (  5, 36,  5)
  0 -0.3850E-02  0  0.2915E-02  0 -0.2071E-02  0  0.1414E-02  0  0.1208E-02
   (  5, 38,  5)  (  5, 35,  5)  (  5, 36,  8)  (  5, 34,  9)  (  5, 35,  8)
  0 -0.8917E-03  0  0.6157E-03  0 -0.5298E-03  0 -0.2800E-03  0  0.2516E-03
   (  5, 33,  8)  (  5, 14,  1)  (  5, 13,  1)  (  5, 30,  3)  (  5, 13,  1)
  0 -0.2953E-03  0  0.1990E-03  0 -0.1216E-03  0  0.8711E-04  0 -0.6618E-04
   (  5, 35,  1)  (  5, 38,  1)  (  5, 28, 11)  (  5, 32, 10)  (  5, 33,  6)
  0 -0.6139E-04  0  0.4115E-04  0 -0.3555E-04  0  0.2357E-04  0  0.1451E-04
   (  5, 37,  1)  (  5, 40,  2)  (  5, 13,  2)  (  5, 13,  2)  (  5, 37,  1)
  1  0.1224E-03  0  0.1143E-03  0  0.7916E-04  0  0.5930E-04  0  0.3800E-04
   (  3, 18,  7)  (  3, 18,  7)  (  5, 32,  1)  (  3, 18,  7)  (  3, 18,  7)
  0  0.2308E-04  0 -0.2081E-04  0  0.1455E-04  0 -0.1034E-04  0 -0.7930E-05
   (  5, 36,  1)  (  5, 38,  2)  (  5, 36,  1)  (  5, 37,  1)  (  5, 28,  1)
  0 -0.9161E-05  0  0.5039E-05  0 -0.4029E-05  0 -0.2743E-05  0  0.2542E-05
   (  5, 14,  1)  (  5, 32, 11)  (  5, 40,  2)  (  5, 31,  9)  (  5, 27,  9)
  0 -0.1662E-05  0  0.1153E-05  0 -0.1010E-05  0  0.9593E-06  1 -0.6359E-06
   (  5, 13,  1)  (  5, 13,  1)  (  5, 32,  1)  (  5, 29,  1)  (  5, 28,  1)

 MAXIMUM RESIDUAL FOR EACH ITERATION (1 INDICATES THE FIRST INNER ITERATION):

    RESIDUAL       RESIDUAL       RESIDUAL       RESIDUAL       RESIDUAL    
   LAYER,ROW,COL  LAYER,ROW,COL  LAYER,ROW,COL  LAYER,ROW,COL  LAYER,ROW,COL
 ---------------------------------------------------------------------------
  1  0.1702E-03  0  0.1454E-03  0  0.1103E-03  0 -0.9815E-04  0 -0.9001E-04
   (  4, 35, 35)  (  4, 35, 35)  (  4, 35, 35)  (  4, 43,  6)  (  4, 43,  5)
  0 -0.7799E-04  0 -0.6406E-04  0 -0.5220E-04  0 -0.4036E-04  0 -0.3143E-04
   (  4, 43,  5)  (  4, 43,  4)  (  4, 43,  4)  (  4, 43,  4)  (  4, 44,  2)
  0 -0.2575E-04  0 -0.2013E-04  0 -0.1487E-04  0 -0.1075E-04  0 -0.7636E-05
   (  4, 44,  2)  (  4, 44,  2)  (  4, 44,  2)  (  4, 44,  2)  (  4, 44,  2)
  0 -0.5159E-05  0 -0.3556E-05  0 -0.2541E-05  0 -0.2201E-05  0 -0.1744E-05
   (  4, 44,  2)  (  4, 44,  2)  (  4, 34, 35)  (  4, 34, 35)  (  4, 34, 35)
  0 -0.1432E-05  0 -0.1101E-05  0 -0.7646E-06  0  0.5607E-06  0  0.4255E-06
   (  4, 34, 35)  (  4, 34, 35)  (  4, 34, 35)  (  4, 35, 35)  (  4, 35, 35)
  0  0.3642E-06  0  0.2707E-06  0  0.1965E-06  0  0.1270E-06  0 -0.8566E-07
   (  4, 35, 35)  (  4, 35, 35)  (  4, 35, 35)  (  4, 35, 35)  (  3,  3,  2)
  1 -0.5510E-06  0 -0.3598E-06  0 -0.2377E-06  0 -0.1349E-06  0  0.8444E-07
   (  3, 18,  7)  (  3, 18,  7)  (  3, 18,  7)  (  3, 18,  7)  (  4, 18,  7)
  0  0.7693E-07  0  0.5062E-07  0 -0.4826E-07  0 -0.4115E-07  0 -0.3506E-07
   (  4, 18,  7)  (  4, 18,  7)  (  4, 18,  6)  (  4, 18,  6)  (  4, 18,  6)
  0 -0.2887E-07  0 -0.2629E-07  0 -0.1638E-07  0 -0.1258E-07  0 -0.8540E-08
   (  4, 18,  6)  (  4, 18,  6)  (  4, 17,  7)  (  4, 17,  7)  (  4, 17,  7)
  0  0.5518E-08  0 -0.4258E-08  0 -0.3658E-08  0 -0.2863E-08  1 -0.2607E-08
   (  4, 39,  5)  (  2,  2, 26)  (  2,  2, 26)  (  2,  2, 26)  (  2,  2, 26)



 OUTPUT CONTROL FOR STRESS PERIOD   33   TIME STEP    3
    SAVE HEAD FOR ALL LAYERS
    SAVE DRAWDOWN FOR ALL LAYERS
    SAVE BUDGET
    PRINT BUDGET
 UBDSV1 SAVING "         STORAGE" ON UNIT   9 AT TIME STEP  3, STRESS PERIOD  33
 UBDSV2 SAVING "   CONSTANT HEAD" ON UNIT   9 AT TIME STEP  3, STRESS PERIOD  33
 UBDSV1 SAVING "FLOW RIGHT FACE " ON UNIT   9 AT TIME STEP  3, STRESS PERIOD  33
 UBDSV1 SAVING "FLOW FRONT FACE " ON UNIT   9 AT TIME STEP  3, STRESS PERIOD  33
 UBDSV1 SAVING "FLOW LOWER FACE " ON UNIT   9 AT TIME STEP  3, STRESS PERIOD  33
 UBDSV3 SAVING "        RECHARGE" ON UNIT   9 AT TIME STEP  3, STRESS PERIOD  33

 HEAD WILL BE SAVED ON UNIT   37 AT END OF TIME STEP    3, STRESS PERIOD   33

 DRAWDOWN WILL BE SAVED ON UNIT   38 AT END OF TIME STEP    3, STRESS PERIOD   33
1
  VOLUMETRIC BUDGET FOR ENTIRE MODEL AT END OF TIME STEP    3, STRESS PERIOD  33
  ------------------------------------------------------------------------------

     CUMULATIVE VOLUMES      L**3       RATES FOR THIS TIME STEP      L**3/T
     ------------------                 ------------------------

           IN:                                      IN:
           ---                                      ---
             STORAGE =        8631.6777               STORAGE =       1.1188E-03
       CONSTANT HEAD =       10349.1787         CONSTANT HEAD =       2.4258E-03
            RECHARGE =         432.3731              RECHARGE =       1.0213E-04

            TOTAL IN =       19413.2285              TOTAL IN =       3.6468E-03

          OUT:                                     OUT:
          ----                                     ----
             STORAGE =        2774.0127               STORAGE =           0.0000
       CONSTANT HEAD =       16639.7070         CONSTANT HEAD =       3.6469E-03
            RECHARGE =           0.0000              RECHARGE =           0.0000

           TOTAL OUT =       19413.7188             TOTAL OUT =       3.6469E-03

            IN - OUT =          -0.4902              IN - OUT =      -8.8243E-08

 PERCENT DISCREPANCY =          -0.00     PERCENT DISCREPANCY =          -0.00






         TIME SUMMARY AT END OF TIME STEP    3 IN STRESS PERIOD   33
                    SECONDS     MINUTES      HOURS       DAYS        YEARS
                    -----------------------------------------------------------
   TIME STEP LENGTH  86400.      1440.0      24.000      1.0000     2.73785E-03
 STRESS PERIOD TIME 2.59200E+05  4320.0      72.000      3.0000     8.21355E-03
         TOTAL TIME 4.23360E+06  70560.      1176.0      49.000     0.13415    
1
1
                            STRESS PERIOD NO.   34, LENGTH =   86400.00    
                            -----------------------------------------------

                              NUMBER OF TIME STEPS =     1

                               MULTIPLIER FOR DELT =     1.000

                            INITIAL TIME STEP SIZE =   86400.00    

 REUSING RECH FROM LAST STRESS PERIOD

 CHD NO.   LAYER   ROW   COL    START HEAD        END HEAD         IFACE           
 ----------------------------------------------------------------------------------
      1      4      3      1       109.4           109.4           0.000    
      2      5      3      1       109.4           109.4           0.000    
      3      4      3      2       109.4           109.4           0.000    
      4      5      3      2       109.4           109.4           0.000    
      5      4      3      3       109.4           109.4           0.000    
      6      5      3      3       109.4           109.4           0.000    
      7      4      3      4       109.4           109.4           0.000    
      8      5      3      4       109.4           109.4           0.000    
      9      4      3      5       109.4           109.4           0.000    
     10      5      3      5       109.4           109.4           0.000    
     11      4      3      6       109.4           109.4           0.000    
     12      5      3      6       109.4           109.4           0.000    
     13      4      3      7       109.4           109.4           0.000    
     14      5      3      7       109.4           109.4           0.000    
     15      4      3      8       109.4           109.4           0.000    
     16      5      3      8       109.4           109.4           0.000    
     17      4      2      8       109.4           109.4           0.000    
     18      5      2      8       109.4           109.4           0.000    
     19      4      2      9       109.4           109.4           0.000    
     20      5      2      9       109.4           109.4           0.000    
     21      4      2     10       109.4           109.4           0.000    
     22      5      2     10       109.4           109.4           0.000    
     23      4      2     11       109.4           109.4           0.000    
     24      5      2     11       109.4           109.4           0.000    
     25      4      2     12       109.4           109.4           0.000    
     26      5      2     12       109.4           109.4           0.000    
     27      4      2     13       109.4           109.4           0.000    
     28      5      2     13       109.4           109.4           0.000    
     29      4      2     14       109.4           109.4           0.000    
     30      5      2     14       109.4           109.4           0.000    
     31      4      2     15       109.4           109.4           0.000    
     32      5      2     15       109.4           109.4           0.000    
     33      4      2     16       109.4           109.4           0.000    
     34      5      2     16       109.4           109.4           0.000    
     35      4      2     17       109.4           109.4           0.000    
     36      5      2     17       109.4           109.4           0.000    
     37      4      2     18       109.4           109.4           0.000    
     38      5      2     18       109.4           109.4           0.000    
     39      4      2     19       109.4           109.4           0.000    
     40      5      2     19       109.4           109.4           0.000    
     41      4      2     20       109.4           109.4           0.000    
     42      5      2     20       109.4           109.4           0.000    
     43      4      2     21       109.4           109.4           0.000    
     44      5      2     21       109.4           109.4           0.000    
     45      4      2     22       109.4           109.4           0.000    
     46      5      2     22       109.4           109.4           0.000    
     47      4      2     23       109.4           109.4           0.000    
     48      5      2     23       109.4           109.4           0.000    
     49      4      2     24       109.4           109.4           0.000    
     50      5      2     24       109.4           109.4           0.000    
     51      4      2     25       109.4           109.4           0.000    
     52      5      2     25       109.4           109.4           0.000    
     53      4      2     26       109.4           109.4           0.000    
     54      5      2     26       109.4           109.4           0.000    
     55      4      1     26       109.4           109.4           0.000    
     56      5      1     26       109.4           109.4           0.000    
     57      4      1     27       109.4           109.4           0.000    
     58      5      1     27       109.4           109.4           0.000    
     59      4      1     28       109.4           109.4           0.000    
     60      5      1     28       109.4           109.4           0.000    
     61      4      1     29       109.4           109.4           0.000    
     62      5      1     29       109.4           109.4           0.000    
     63      4      1     30       109.4           109.4           0.000    
     64      5      1     30       109.4           109.4           0.000    
     65      4      1     31       109.4           109.4           0.000    
     66      5      1     31       109.4           109.4           0.000    
     67      4      1     32       109.4           109.4           0.000    
     68      5      1     32       109.4           109.4           0.000    
     69      4      1     33       109.4           109.4           0.000    
     70      5      1     33       109.4           109.4           0.000    
     71      4      1     34       109.4           109.4           0.000    
     72      5      1     34       109.4           109.4           0.000    
     73      4      1     35       109.4           109.4           0.000    
     74      5      1     35       109.4           109.4           0.000    
     75      4     36     35       109.1           109.2           0.000    
     76      5     36     35       109.1           109.2           0.000    
     77      4     35     34       109.1           109.2           0.000    
     78      5     35     34       109.1           109.2           0.000    
     79      4     36     34       109.1           109.2           0.000    
     80      5     36     34       109.1           109.2           0.000    
     81      4     36     33       109.1           109.2           0.000    
     82      5     36     33       109.1           109.2           0.000    
     83      4     36     32       109.1           109.2           0.000    
     84      5     36     32       109.1           109.2           0.000    
     85      4     37     32       109.1           109.2           0.000    
     86      5     37     32       109.1           109.2           0.000    
     87      4     37     31       109.1           109.2           0.000    
     88      5     37     31       109.1           109.2           0.000    
     89      4     38     31       109.1           109.2           0.000    
     90      5     38     31       109.1           109.2           0.000    
     91      4     38     30       109.1           109.2           0.000    
     92      5     38     30       109.1           109.2           0.000    
     93      4     39     30       109.1           109.2           0.000    
     94      5     39     30       109.1           109.2           0.000    
     95      4     39     29       109.1           109.2           0.000    
     96      5     39     29       109.1           109.2           0.000    
     97      4     40     29       109.1           109.2           0.000    
     98      5     40     29       109.1           109.2           0.000    
     99      4     40     28       109.1           109.2           0.000    
    100      5     40     28       109.1           109.2           0.000    
    101      4     40     27       109.1           109.2           0.000    
    102      5     40     27       109.1           109.2           0.000    
    103      4     41     27       109.1           109.2           0.000    
    104      5     41     27       109.1           109.2           0.000    
    105      4     41     26       109.1           109.1           0.000    
    106      5     41     26       109.1           109.1           0.000    
    107      4     41     25       109.1           109.1           0.000    
    108      5     41     25       109.1           109.1           0.000    
    109      4     41     24       109.1           109.1           0.000    
    110      5     41     24       109.1           109.1           0.000    
    111      4     41     23       109.1           109.1           0.000    
    112      5     41     23       109.1           109.1           0.000    
    113      4     41     22       109.1           109.1           0.000    
    114      5     41     22       109.1           109.1           0.000    
    115      4     42     22       109.1           109.1           0.000    
    116      5     42     22       109.1           109.1           0.000    
    117      4     42     21       109.1           109.1           0.000    
    118      5     42     21       109.1           109.1           0.000    
    119      4     42     20       109.1           109.1           0.000    
    120      5     42     20       109.1           109.1           0.000    
    121      4     42     19       109.1           109.1           0.000    
    122      5     42     19       109.1           109.1           0.000    
    123      4     43     18       109.1           109.1           0.000    
    124      5     43     18       109.1           109.1           0.000    
    125      4     42     18       109.1           109.1           0.000    
    126      5     42     18       109.1           109.1           0.000    
    127      4     42     17       109.1           109.1           0.000    
    128      5     42     17       109.1           109.1           0.000    
    129      4     42     16       109.1           109.1           0.000    
    130      5     42     16       109.1           109.1           0.000    
    131      4     42     15       109.1           109.1           0.000    
    132      5     42     15       109.1           109.1           0.000    
    133      4     43     15       109.1           109.1           0.000    
    134      5     43     15       109.1           109.1           0.000    
    135      4     43     14       109.1           109.1           0.000    
    136      5     43     14       109.1           109.1           0.000    
    137      4     43     13       109.1           109.1           0.000    
    138      5     43     13       109.1           109.1           0.000    
    139      4     43     12       109.1           109.1           0.000    
    140      5     43     12       109.1           109.1           0.000    
    141      4     43     11       109.1           109.1           0.000    
    142      5     43     11       109.1           109.1           0.000    
    143      4     43     10       109.1           109.1           0.000    
    144      5     43     10       109.1           109.1           0.000    
    145      4     44     10       109.1           109.1           0.000    
    146      5     44     10       109.1           109.1           0.000    
    147      4     44      9       109.1           109.1           0.000    
    148      5     44      9       109.1           109.1           0.000    
    149      4     44      8       109.1           109.1           0.000    
    150      5     44      8       109.1           109.1           0.000    
    151      4     44      7       109.1           109.1           0.000    
    152      5     44      7       109.1           109.1           0.000    
    153      4     44      6       109.1           109.1           0.000    
    154      5     44      6       109.1           109.1           0.000    
    155      4     44      5       109.1           109.1           0.000    
    156      5     44      5       109.1           109.1           0.000    
    157      4     44      4       109.1           109.1           0.000    
    158      5     44      4       109.1           109.1           0.000    
    159      4     44      3       109.1           109.1           0.000    
    160      5     44      3       109.1           109.1           0.000    
    161      4     45      3       109.1           109.1           0.000    
    162      5     45      3       109.1           109.1           0.000    
    163      4     45      2       109.1           109.1           0.000    
    164      5     45      2       109.1           109.1           0.000    
    165      4     45      1       109.1           109.1           0.000    
    166      5     45      1       109.1           109.1           0.000    


    166 TIME-VARIANT SPECIFIED-HEAD CELLS

 SOLVING FOR HEAD 


     3 CALLS TO PCG ROUTINE FOR TIME STEP   1 IN STRESS PERIOD   34
    51 TOTAL ITERATIONS

 MAXIMUM HEAD CHANGE FOR EACH ITERATION (1 INDICATES THE FIRST INNER ITERATION):

    HEAD CHANGE    HEAD CHANGE    HEAD CHANGE    HEAD CHANGE    HEAD CHANGE 
   LAYER,ROW,COL  LAYER,ROW,COL  LAYER,ROW,COL  LAYER,ROW,COL  LAYER,ROW,COL
 ---------------------------------------------------------------------------
  1  0.1518      0 -0.6363E-01  0 -0.6013E-01  0  0.7595E-01  0 -0.5186E-01
   (  5, 43,  5)  (  5, 40,  1)  (  5, 42,  1)  (  5, 38,  1)  (  5, 35,  1)
  0  0.3103E-01  0  0.2215E-01  0 -0.1268E-01  0  0.1404E-01  0 -0.1061E-01
   (  5, 33,  2)  (  5, 41,  5)  (  5, 40,  1)  (  5, 37,  1)  (  5, 40,  5)
  0  0.8669E-02  0 -0.5155E-02  0 -0.4350E-02  0  0.3355E-02  0 -0.2435E-02
   (  5, 39,  1)  (  5, 42,  1)  (  5, 36,  5)  (  5, 37,  8)  (  5, 35,  8)
  0 -0.1574E-02  0 -0.1307E-02  0 -0.9230E-03  0  0.1053E-02  0 -0.8166E-03
   (  5, 36,  7)  (  5, 14,  1)  (  5, 32,  2)  (  5, 13,  1)  (  5, 12,  1)
  0 -0.5045E-03  0  0.4411E-03  0 -0.2741E-03  0  0.1991E-03  0  0.1548E-03
   (  5, 37,  1)  (  5, 35,  1)  (  5, 37,  4)  (  5, 36,  1)  (  5, 12,  2)
  0 -0.1128E-03  0 -0.7805E-04  0  0.7822E-04  0 -0.3989E-04  0 -0.3401E-04
   (  5, 36,  7)  (  5, 36,  1)  (  5, 38,  1)  (  5, 36,  1)  (  5, 37,  1)
  1  0.8644E-04  0 -0.7839E-04  0  0.1194E-03  0 -0.4733E-04  0  0.3612E-04
   (  5, 39,  2)  (  5, 38,  1)  (  5, 32,  1)  (  5, 39,  8)  (  5, 25,  2)
  0  0.2867E-04  0 -0.3404E-04  0  0.3020E-04  0 -0.1471E-04  0  0.1216E-04
   (  5, 37,  5)  (  5, 36,  1)  (  5, 38,  1)  (  5, 40,  2)  (  5, 41,  2)
  0  0.1263E-04  0  0.7372E-05  0  0.6201E-05  0  0.3712E-05  0 -0.2613E-05
   (  5, 35,  4)  (  5, 28,  1)  (  5, 37,  7)  (  5, 40,  1)  (  5, 36,  9)
  0  0.2628E-05  0  0.1792E-05  0 -0.1757E-05  0  0.1107E-05  0 -0.8628E-06
   (  5, 12,  1)  (  5, 30,  1)  (  5, 33,  1)  (  5, 13,  1)  (  5, 13,  1)
  1 -0.4855E-06
   (  5, 37,  1)

 MAXIMUM RESIDUAL FOR EACH ITERATION (1 INDICATES THE FIRST INNER ITERATION):

    RESIDUAL       RESIDUAL       RESIDUAL       RESIDUAL       RESIDUAL    
   LAYER,ROW,COL  LAYER,ROW,COL  LAYER,ROW,COL  LAYER,ROW,COL  LAYER,ROW,COL
 ---------------------------------------------------------------------------
  1 -0.5861E-03  0 -0.4427E-03  0 -0.3607E-03  0 -0.2965E-03  0 -0.2502E-03
   (  4, 44,  2)  (  4, 35, 35)  (  4, 35, 35)  (  3, 40, 27)  (  3, 40, 27)
  0 -0.2028E-03  0 -0.1539E-03  0 -0.1218E-03  0 -0.9475E-04  0  0.7165E-04
   (  3, 40, 27)  (  3, 40, 27)  (  3, 40, 27)  (  4, 35, 35)  (  4, 43,  4)
  0  0.5441E-04  0  0.3966E-04  0  0.2880E-04  0  0.2310E-04  0  0.1867E-04
   (  3, 35, 35)  (  3, 35, 35)  (  4, 34, 35)  (  4, 34, 35)  (  4, 34, 35)
  0  0.1448E-04  0  0.1151E-04  0  0.1036E-04  0  0.8254E-05  0  0.6348E-05
   (  4, 34, 35)  (  4, 34, 35)  (  4, 34, 35)  (  4, 34, 35)  (  4, 34, 35)
  0  0.5168E-05  0  0.4233E-05  0  0.3203E-05  0  0.2253E-05  0  0.1624E-05
   (  4, 34, 35)  (  4, 34, 35)  (  4, 34, 35)  (  4, 34, 35)  (  4, 34, 35)
  0  0.1119E-05  0  0.8250E-06  0  0.6472E-06  0 -0.4670E-06  0 -0.3435E-06
   (  4, 34, 35)  (  4, 34, 35)  (  4, 34, 35)  (  4, 35, 35)  (  4, 35, 35)
  1 -0.1406E-05  0 -0.7970E-06  0 -0.4556E-06  0 -0.2441E-06  0 -0.2312E-06
   (  3, 44,  5)  (  3, 44,  5)  (  3, 44,  5)  (  4, 43,  4)  (  4, 43,  4)
  0 -0.2051E-06  0 -0.1588E-06  0 -0.1237E-06  0  0.9065E-07  0  0.8413E-07
   (  4, 43,  4)  (  4, 43,  4)  (  4, 43,  4)  (  3, 44,  5)  (  3, 44,  5)
  0  0.6863E-07  0  0.5303E-07  0 -0.3854E-07  0 -0.3024E-07  0 -0.2128E-07
   (  3, 44,  5)  (  3, 44,  5)  (  4, 44,  1)  (  4, 44,  1)  (  4, 44,  1)
  0  0.1572E-07  0  0.1346E-07  0  0.1137E-07  0  0.9013E-08  0  0.6829E-08
   (  4, 43,  4)  (  4, 43,  4)  (  4, 43,  4)  (  4, 43,  4)  (  4, 43,  4)
  1  0.6702E-08
   (  4, 43,  4)



 OUTPUT CONTROL FOR STRESS PERIOD   34   TIME STEP    1
    SAVE HEAD FOR ALL LAYERS
    SAVE DRAWDOWN FOR ALL LAYERS
    SAVE BUDGET
    PRINT BUDGET
 UBDSV1 SAVING "         STORAGE" ON UNIT   9 AT TIME STEP  1, STRESS PERIOD  34
 UBDSV2 SAVING "   CONSTANT HEAD" ON UNIT   9 AT TIME STEP  1, STRESS PERIOD  34
 UBDSV1 SAVING "FLOW RIGHT FACE " ON UNIT   9 AT TIME STEP  1, STRESS PERIOD  34
 UBDSV1 SAVING "FLOW FRONT FACE " ON UNIT   9 AT TIME STEP  1, STRESS PERIOD  34
 UBDSV1 SAVING "FLOW LOWER FACE " ON UNIT   9 AT TIME STEP  1, STRESS PERIOD  34
 UBDSV3 SAVING "        RECHARGE" ON UNIT   9 AT TIME STEP  1, STRESS PERIOD  34

 HEAD WILL BE SAVED ON UNIT   37 AT END OF TIME STEP    1, STRESS PERIOD   34

 DRAWDOWN WILL BE SAVED ON UNIT   38 AT END OF TIME STEP    1, STRESS PERIOD   34
1
  VOLUMETRIC BUDGET FOR ENTIRE MODEL AT END OF TIME STEP    1, STRESS PERIOD  34
  ------------------------------------------------------------------------------

     CUMULATIVE VOLUMES      L**3       RATES FOR THIS TIME STEP      L**3/T
     ------------------                 ------------------------

           IN:                                      IN:
           ---                                      ---
             STORAGE =        8645.2920               STORAGE =       1.5757E-04
       CONSTANT HEAD =       10541.0605         CONSTANT HEAD =       2.2209E-03
            RECHARGE =         441.1971              RECHARGE =       1.0213E-04

            TOTAL IN =       19627.5488              TOTAL IN =       2.4806E-03

          OUT:                                     OUT:
          ----                                     ----
             STORAGE =        2827.5769               STORAGE =       6.1996E-04
       CONSTANT HEAD =       16800.4746         CONSTANT HEAD =       1.8607E-03
            RECHARGE =           0.0000              RECHARGE =           0.0000

           TOTAL OUT =       19628.0508             TOTAL OUT =       2.4807E-03

            IN - OUT =          -0.5020              IN - OUT =      -1.2806E-07

 PERCENT DISCREPANCY =          -0.00     PERCENT DISCREPANCY =          -0.01






         TIME SUMMARY AT END OF TIME STEP    1 IN STRESS PERIOD   34
                    SECONDS     MINUTES      HOURS       DAYS        YEARS
                    -----------------------------------------------------------
   TIME STEP LENGTH  86400.      1440.0      24.000      1.0000     2.73785E-03
 STRESS PERIOD TIME  86400.      1440.0      24.000      1.0000     2.73785E-03
         TOTAL TIME 4.32000E+06  72000.      1200.0      50.000     0.13689    
1
1
                            STRESS PERIOD NO.   35, LENGTH =   86400.00    
                            -----------------------------------------------

                              NUMBER OF TIME STEPS =     1

                               MULTIPLIER FOR DELT =     1.000

                            INITIAL TIME STEP SIZE =   86400.00    

 REUSING RECH FROM LAST STRESS PERIOD

 CHD NO.   LAYER   ROW   COL    START HEAD        END HEAD         IFACE           
 ----------------------------------------------------------------------------------
      1      4      3      1       109.4           109.5           0.000    
      2      5      3      1       109.4           109.5           0.000    
      3      4      3      2       109.4           109.5           0.000    
      4      5      3      2       109.4           109.5           0.000    
      5      4      3      3       109.4           109.5           0.000    
      6      5      3      3       109.4           109.5           0.000    
      7      4      3      4       109.4           109.5           0.000    
      8      5      3      4       109.4           109.5           0.000    
      9      4      3      5       109.4           109.5           0.000    
     10      5      3      5       109.4           109.5           0.000    
     11      4      3      6       109.4           109.5           0.000    
     12      5      3      6       109.4           109.5           0.000    
     13      4      3      7       109.4           109.5           0.000    
     14      5      3      7       109.4           109.5           0.000    
     15      4      3      8       109.4           109.5           0.000    
     16      5      3      8       109.4           109.5           0.000    
     17      4      2      8       109.4           109.5           0.000    
     18      5      2      8       109.4           109.5           0.000    
     19      4      2      9       109.4           109.5           0.000    
     20      5      2      9       109.4           109.5           0.000    
     21      4      2     10       109.4           109.5           0.000    
     22      5      2     10       109.4           109.5           0.000    
     23      4      2     11       109.4           109.5           0.000    
     24      5      2     11       109.4           109.5           0.000    
     25      4      2     12       109.4           109.5           0.000    
     26      5      2     12       109.4           109.5           0.000    
     27      4      2     13       109.4           109.5           0.000    
     28      5      2     13       109.4           109.5           0.000    
     29      4      2     14       109.4           109.5           0.000    
     30      5      2     14       109.4           109.5           0.000    
     31      4      2     15       109.4           109.5           0.000    
     32      5      2     15       109.4           109.5           0.000    
     33      4      2     16       109.4           109.5           0.000    
     34      5      2     16       109.4           109.5           0.000    
     35      4      2     17       109.4           109.5           0.000    
     36      5      2     17       109.4           109.5           0.000    
     37      4      2     18       109.4           109.5           0.000    
     38      5      2     18       109.4           109.5           0.000    
     39      4      2     19       109.4           109.5           0.000    
     40      5      2     19       109.4           109.5           0.000    
     41      4      2     20       109.4           109.5           0.000    
     42      5      2     20       109.4           109.5           0.000    
     43      4      2     21       109.4           109.5           0.000    
     44      5      2     21       109.4           109.5           0.000    
     45      4      2     22       109.4           109.5           0.000    
     46      5      2     22       109.4           109.5           0.000    
     47      4      2     23       109.4           109.5           0.000    
     48      5      2     23       109.4           109.5           0.000    
     49      4      2     24       109.4           109.5           0.000    
     50      5      2     24       109.4           109.5           0.000    
     51      4      2     25       109.4           109.5           0.000    
     52      5      2     25       109.4           109.5           0.000    
     53      4      2     26       109.4           109.5           0.000    
     54      5      2     26       109.4           109.5           0.000    
     55      4      1     26       109.4           109.5           0.000    
     56      5      1     26       109.4           109.5           0.000    
     57      4      1     27       109.4           109.5           0.000    
     58      5      1     27       109.4           109.5           0.000    
     59      4      1     28       109.4           109.5           0.000    
     60      5      1     28       109.4           109.5           0.000    
     61      4      1     29       109.4           109.5           0.000    
     62      5      1     29       109.4           109.5           0.000    
     63      4      1     30       109.4           109.5           0.000    
     64      5      1     30       109.4           109.5           0.000    
     65      4      1     31       109.4           109.5           0.000    
     66      5      1     31       109.4           109.5           0.000    
     67      4      1     32       109.4           109.5           0.000    
     68      5      1     32       109.4           109.5           0.000    
     69      4      1     33       109.4           109.5           0.000    
     70      5      1     33       109.4           109.5           0.000    
     71      4      1     34       109.4           109.5           0.000    
     72      5      1     34       109.4           109.5           0.000    
     73      4      1     35       109.4           109.5           0.000    
     74      5      1     35       109.4           109.5           0.000    
     75      4     36     35       109.2           109.6           0.000    
     76      5     36     35       109.2           109.6           0.000    
     77      4     35     34       109.2           109.6           0.000    
     78      5     35     34       109.2           109.6           0.000    
     79      4     36     34       109.2           109.6           0.000    
     80      5     36     34       109.2           109.6           0.000    
     81      4     36     33       109.2           109.6           0.000    
     82      5     36     33       109.2           109.6           0.000    
     83      4     36     32       109.2           109.6           0.000    
     84      5     36     32       109.2           109.6           0.000    
     85      4     37     32       109.2           109.6           0.000    
     86      5     37     32       109.2           109.6           0.000    
     87      4     37     31       109.2           109.6           0.000    
     88      5     37     31       109.2           109.6           0.000    
     89      4     38     31       109.2           109.6           0.000    
     90      5     38     31       109.2           109.6           0.000    
     91      4     38     30       109.2           109.6           0.000    
     92      5     38     30       109.2           109.6           0.000    
     93      4     39     30       109.2           109.6           0.000    
     94      5     39     30       109.2           109.6           0.000    
     95      4     39     29       109.2           109.6           0.000    
     96      5     39     29       109.2           109.6           0.000    
     97      4     40     29       109.2           109.6           0.000    
     98      5     40     29       109.2           109.6           0.000    
     99      4     40     28       109.2           109.6           0.000    
    100      5     40     28       109.2           109.6           0.000    
    101      4     40     27       109.2           109.6           0.000    
    102      5     40     27       109.2           109.6           0.000    
    103      4     41     27       109.2           109.6           0.000    
    104      5     41     27       109.2           109.6           0.000    
    105      4     41     26       109.1           109.6           0.000    
    106      5     41     26       109.1           109.6           0.000    
    107      4     41     25       109.1           109.6           0.000    
    108      5     41     25       109.1           109.6           0.000    
    109      4     41     24       109.1           109.6           0.000    
    110      5     41     24       109.1           109.6           0.000    
    111      4     41     23       109.1           109.6           0.000    
    112      5     41     23       109.1           109.6           0.000    
    113      4     41     22       109.1           109.6           0.000    
    114      5     41     22       109.1           109.6           0.000    
    115      4     42     22       109.1           109.6           0.000    
    116      5     42     22       109.1           109.6           0.000    
    117      4     42     21       109.1           109.6           0.000    
    118      5     42     21       109.1           109.6           0.000    
    119      4     42     20       109.1           109.6           0.000    
    120      5     42     20       109.1           109.6           0.000    
    121      4     42     19       109.1           109.6           0.000    
    122      5     42     19       109.1           109.6           0.000    
    123      4     43     18       109.1           109.6           0.000    
    124      5     43     18       109.1           109.6           0.000    
    125      4     42     18       109.1           109.6           0.000    
    126      5     42     18       109.1           109.6           0.000    
    127      4     42     17       109.1           109.5           0.000    
    128      5     42     17       109.1           109.5           0.000    
    129      4     42     16       109.1           109.5           0.000    
    130      5     42     16       109.1           109.5           0.000    
    131      4     42     15       109.1           109.5           0.000    
    132      5     42     15       109.1           109.5           0.000    
    133      4     43     15       109.1           109.5           0.000    
    134      5     43     15       109.1           109.5           0.000    
    135      4     43     14       109.1           109.5           0.000    
    136      5     43     14       109.1           109.5           0.000    
    137      4     43     13       109.1           109.5           0.000    
    138      5     43     13       109.1           109.5           0.000    
    139      4     43     12       109.1           109.5           0.000    
    140      5     43     12       109.1           109.5           0.000    
    141      4     43     11       109.1           109.5           0.000    
    142      5     43     11       109.1           109.5           0.000    
    143      4     43     10       109.1           109.5           0.000    
    144      5     43     10       109.1           109.5           0.000    
    145      4     44     10       109.1           109.5           0.000    
    146      5     44     10       109.1           109.5           0.000    
    147      4     44      9       109.1           109.5           0.000    
    148      5     44      9       109.1           109.5           0.000    
    149      4     44      8       109.1           109.5           0.000    
    150      5     44      8       109.1           109.5           0.000    
    151      4     44      7       109.1           109.5           0.000    
    152      5     44      7       109.1           109.5           0.000    
    153      4     44      6       109.1           109.5           0.000    
    154      5     44      6       109.1           109.5           0.000    
    155      4     44      5       109.1           109.5           0.000    
    156      5     44      5       109.1           109.5           0.000    
    157      4     44      4       109.1           109.5           0.000    
    158      5     44      4       109.1           109.5           0.000    
    159      4     44      3       109.1           109.5           0.000    
    160      5     44      3       109.1           109.5           0.000    
    161      4     45      3       109.1           109.5           0.000    
    162      5     45      3       109.1           109.5           0.000    
    163      4     45      2       109.1           109.5           0.000    
    164      5     45      2       109.1           109.5           0.000    
    165      4     45      1       109.1           109.5           0.000    
    166      5     45      1       109.1           109.5           0.000    


    166 TIME-VARIANT SPECIFIED-HEAD CELLS

 SOLVING FOR HEAD 


     4 CALLS TO PCG ROUTINE FOR TIME STEP   1 IN STRESS PERIOD   35
    84 TOTAL ITERATIONS

 MAXIMUM HEAD CHANGE FOR EACH ITERATION (1 INDICATES THE FIRST INNER ITERATION):

    HEAD CHANGE    HEAD CHANGE    HEAD CHANGE    HEAD CHANGE    HEAD CHANGE 
   LAYER,ROW,COL  LAYER,ROW,COL  LAYER,ROW,COL  LAYER,ROW,COL  LAYER,ROW,COL
 ---------------------------------------------------------------------------
  1   1.292      0 -0.6203      0 -0.4743      0  0.5746      0 -0.4302    
   (  5, 43,  5)  (  5, 40,  1)  (  5, 42,  1)  (  5, 38,  1)  (  5, 35,  1)
  0  0.2657      0  0.1740      0 -0.1090      0  0.1151      0 -0.8567E-01
   (  5, 33,  2)  (  5, 41,  5)  (  5, 40,  1)  (  5, 37,  1)  (  5, 40,  5)
  0  0.6695E-01  0 -0.4251E-01  0 -0.3111E-01  0  0.2752E-01  0 -0.2291E-01
   (  5, 39,  1)  (  5, 42,  1)  (  5, 36,  5)  (  5, 37,  8)  (  5, 35,  8)
  0  0.1238E-01  0 -0.1040E-01  0  0.8389E-02  0  0.1008E-01  0 -0.6134E-02
   (  5, 14,  1)  (  5, 34,  1)  (  5, 37,  4)  (  5, 13,  1)  (  5, 13,  1)
  0  0.3640E-02  0 -0.2740E-02  0  0.2250E-02  0 -0.1700E-02  0  0.1261E-02
   (  5, 38,  4)  (  5, 37,  1)  (  5, 40,  1)  (  5, 39,  1)  (  5, 12,  2)
  0 -0.7616E-03  0  0.8476E-03  0  0.6271E-03  0  0.3027E-03  0  0.3284E-03
   (  5, 40,  2)  (  5, 38,  1)  (  5, 34,  6)  (  5, 15,  1)  (  5, 33,  1)
  1  0.3538E-02  0  0.5611E-02  0  0.8024E-02  0  0.9930E-02  0  0.8098E-02
   (  5, 31,  4)  (  5, 28,  9)  (  5, 30,  2)  (  5, 24,  2)  (  5, 34,  1)
  0  0.6774E-02  0  0.5379E-02  0  0.3032E-02  0  0.3449E-02  0 -0.2786E-02
   (  5, 32,  7)  (  5, 38,  1)  (  5, 37,  6)  (  5, 34, 12)  (  5, 31, 10)
  0  0.1131E-02  0 -0.1649E-02  0  0.1165E-02  0 -0.9962E-03  0 -0.8208E-03
   (  5, 31,  4)  (  5, 35,  9)  (  5, 38,  1)  (  5, 40,  2)  (  5, 39,  7)
  0  0.5976E-03  0  0.5408E-03  0  0.5205E-03  0  0.4958E-03  0 -0.2523E-03
   (  5, 37,  4)  (  5, 28,  5)  (  5, 23, 10)  (  5, 33,  5)  (  5, 29,  1)
  0  0.3267E-03  0 -0.2377E-03  0  0.2160E-03  0  0.1221E-03  0  0.1071E-03
   (  5, 35,  1)  (  5, 39,  2)  (  5, 40,  1)  (  5, 31, 12)  (  5, 41,  1)
  0 -0.7858E-04  0  0.6781E-04  0 -0.5417E-04  0  0.5192E-04  0 -0.3305E-04
   (  5, 14,  1)  (  5, 38,  2)  (  5, 30,  1)  (  5, 33,  4)  (  5, 28,  4)
  1  0.3426E-04  0 -0.3524E-04  0  0.4284E-04  0 -0.6183E-04  0  0.6918E-04
   (  5, 30,  6)  (  5, 24,  1)  (  5, 29,  1)  (  5, 38,  2)  (  5, 40,  2)
  0 -0.4503E-04  0  0.2900E-04  0 -0.2712E-04  0  0.1623E-04  0 -0.2036E-04
   (  5, 40,  1)  (  5, 37,  2)  (  5, 28, 11)  (  5, 23,  8)  (  5, 40,  2)
  0  0.1394E-04  0  0.6192E-05  0 -0.8513E-05  0 -0.6394E-05  0  0.4867E-05
   (  5, 39,  1)  (  5, 28,  1)  (  5, 31,  4)  (  5, 27,  6)  (  5, 29,  8)
  0  0.4272E-05  0 -0.4013E-05  0 -0.2650E-05  0 -0.2965E-05  0  0.1819E-05
   (  5, 35,  1)  (  5, 34,  8)  (  5, 24, 12)  (  5, 15,  1)  (  5, 33,  9)
  0  0.1004E-05  0 -0.1294E-05  0  0.9822E-06  1 -0.7906E-06
   (  5, 37,  2)  (  5, 36,  8)  (  5, 31,  4)  (  5, 30,  2)

 MAXIMUM RESIDUAL FOR EACH ITERATION (1 INDICATES THE FIRST INNER ITERATION):

    RESIDUAL       RESIDUAL       RESIDUAL       RESIDUAL       RESIDUAL    
   LAYER,ROW,COL  LAYER,ROW,COL  LAYER,ROW,COL  LAYER,ROW,COL  LAYER,ROW,COL
 ---------------------------------------------------------------------------
  1 -0.4490E-02  0 -0.3551E-02  0 -0.2884E-02  0 -0.2336E-02  0 -0.1984E-02
   (  4, 44,  2)  (  4, 35, 35)  (  4, 35, 35)  (  3, 40, 27)  (  3, 40, 27)
  0 -0.1600E-02  0 -0.1226E-02  0 -0.9664E-03  0  0.7527E-03  0  0.5939E-03
   (  3, 40, 27)  (  3, 40, 27)  (  3, 40, 27)  (  3, 35, 35)  (  3, 35, 35)
  0  0.4539E-03  0  0.3287E-03  0  0.2344E-03  0  0.1813E-03  0  0.1454E-03
   (  3, 35, 35)  (  3, 35, 35)  (  3, 41, 23)  (  4, 34, 35)  (  4, 34, 35)
  0  0.1139E-03  0  0.1031E-03  0  0.8280E-04  0  0.6462E-04  0  0.4973E-04
   (  4, 34, 35)  (  4, 34, 35)  (  4, 34, 35)  (  4, 34, 35)  (  4, 34, 35)
  0  0.3877E-04  0  0.3284E-04  0  0.2518E-04  0  0.1787E-04  0  0.1276E-04
   (  4, 34, 35)  (  4, 34, 35)  (  4, 34, 35)  (  4, 34, 35)  (  4, 34, 35)
  0  0.9647E-05  0  0.7554E-05  0 -0.5603E-05  0 -0.3988E-05  0 -0.3306E-05
   (  4, 34, 35)  (  4, 34, 35)  (  4, 35, 35)  (  4, 35, 35)  (  4, 35, 35)
  1 -0.1275E-04  0 -0.1210E-04  0 -0.1042E-04  0 -0.1211E-04  0 -0.1557E-04
   (  3, 41,  5)  (  3, 41,  5)  (  3, 41,  5)  (  4, 41,  1)  (  4, 40,  1)
  0 -0.1573E-04  0 -0.1809E-04  0 -0.1625E-04  0 -0.1592E-04  0 -0.1405E-04
   (  4, 41,  1)  (  4, 41,  1)  (  4, 41,  1)  (  4, 42,  1)  (  4, 43,  1)
  0 -0.1369E-04  0 -0.1212E-04  0 -0.1076E-04  0 -0.9427E-05  0 -0.7509E-05
   (  4, 43,  1)  (  4, 43,  1)  (  4, 44,  1)  (  4, 44,  1)  (  4, 44,  1)
  0 -0.6268E-05  0 -0.5347E-05  0 -0.3620E-05  0  0.3408E-05  0  0.3382E-05
   (  4, 44,  1)  (  4, 44,  1)  (  4, 44,  1)  (  4, 44,  2)  (  4, 44,  2)
  0  0.3232E-05  0  0.2971E-05  0  0.2427E-05  0  0.1823E-05  0  0.1268E-05
   (  4, 44,  2)  (  4, 44,  2)  (  4, 44,  2)  (  4, 44,  2)  (  4, 44,  2)
  0  0.8686E-06  0  0.7111E-06  0  0.6242E-06  0  0.4887E-06  0 -0.4383E-06
   (  4, 44,  2)  (  4, 44,  2)  (  4, 44,  2)  (  4, 44,  2)  (  4, 43,  2)
  1  0.4216E-06  0  0.3952E-06  0  0.3772E-06  0  0.3288E-06  0  0.2051E-06
   (  4, 44,  2)  (  4, 44,  2)  (  4, 44,  2)  (  4, 44,  2)  (  4, 44,  2)
  0 -0.1485E-06  0 -0.1736E-06  0 -0.1735E-06  0 -0.1555E-06  0 -0.1127E-06
   (  4, 41,  3)  (  4, 41,  3)  (  4, 41,  3)  (  4, 41,  3)  (  4, 41,  3)
  0 -0.8042E-07  0 -0.7260E-07  0  0.5710E-07  0  0.4082E-07  0 -0.3031E-07
   (  4, 41,  3)  (  4, 41,  3)  (  4, 42,  2)  (  4, 42,  2)  (  4, 44,  1)
  0 -0.2697E-07  0  0.1912E-07  0  0.1422E-07  0  0.1024E-07  0 -0.7483E-08
   (  4, 43,  1)  (  4, 41,  4)  (  4, 41,  4)  (  4, 42,  4)  (  4, 39,  4)
  0 -0.7088E-08  0 -0.6006E-08  0 -0.5257E-08  1 -0.5181E-08
   (  4, 39,  4)  (  4, 39,  4)  (  4, 40,  4)  (  4, 40,  4)



 OUTPUT CONTROL FOR STRESS PERIOD   35   TIME STEP    1
    SAVE HEAD FOR ALL LAYERS
    SAVE DRAWDOWN FOR ALL LAYERS
    SAVE BUDGET
    PRINT BUDGET
 UBDSV1 SAVING "         STORAGE" ON UNIT   9 AT TIME STEP  1, STRESS PERIOD  35
 UBDSV2 SAVING "   CONSTANT HEAD" ON UNIT   9 AT TIME STEP  1, STRESS PERIOD  35
 UBDSV1 SAVING "FLOW RIGHT FACE " ON UNIT   9 AT TIME STEP  1, STRESS PERIOD  35
 UBDSV1 SAVING "FLOW FRONT FACE " ON UNIT   9 AT TIME STEP  1, STRESS PERIOD  35
 UBDSV1 SAVING "FLOW LOWER FACE " ON UNIT   9 AT TIME STEP  1, STRESS PERIOD  35
 UBDSV3 SAVING "        RECHARGE" ON UNIT   9 AT TIME STEP  1, STRESS PERIOD  35

 HEAD WILL BE SAVED ON UNIT   37 AT END OF TIME STEP    1, STRESS PERIOD   35

 DRAWDOWN WILL BE SAVED ON UNIT   38 AT END OF TIME STEP    1, STRESS PERIOD   35
1
  VOLUMETRIC BUDGET FOR ENTIRE MODEL AT END OF TIME STEP    1, STRESS PERIOD  35
  ------------------------------------------------------------------------------

     CUMULATIVE VOLUMES      L**3       RATES FOR THIS TIME STEP      L**3/T
     ------------------                 ------------------------

           IN:                                      IN:
           ---                                      ---
             STORAGE =        8645.2920               STORAGE =           0.0000
       CONSTANT HEAD =       11359.8047         CONSTANT HEAD =       9.4762E-03
            RECHARGE =         450.0210              RECHARGE =       1.0213E-04

            TOTAL IN =       20455.1191              TOTAL IN =       9.5783E-03

          OUT:                                     OUT:
          ----                                     ----
             STORAGE =        3655.1521               STORAGE =       9.5784E-03
       CONSTANT HEAD =       16800.4746         CONSTANT HEAD =           0.0000
            RECHARGE =           0.0000              RECHARGE =           0.0000

           TOTAL OUT =       20455.6270             TOTAL OUT =       9.5784E-03

            IN - OUT =          -0.5078              IN - OUT =      -8.0094E-08

 PERCENT DISCREPANCY =          -0.00     PERCENT DISCREPANCY =          -0.00






         TIME SUMMARY AT END OF TIME STEP    1 IN STRESS PERIOD   35
                    SECONDS     MINUTES      HOURS       DAYS        YEARS
                    -----------------------------------------------------------
   TIME STEP LENGTH  86400.      1440.0      24.000      1.0000     2.73785E-03
 STRESS PERIOD TIME  86400.      1440.0      24.000      1.0000     2.73785E-03
         TOTAL TIME 4.40640E+06  73440.      1224.0      51.000     0.13963    
1
1
                            STRESS PERIOD NO.   36, LENGTH =   86400.00    
                            -----------------------------------------------

                              NUMBER OF TIME STEPS =     1

                               MULTIPLIER FOR DELT =     1.000

                            INITIAL TIME STEP SIZE =   86400.00    

 REUSING RECH FROM LAST STRESS PERIOD

 CHD NO.   LAYER   ROW   COL    START HEAD        END HEAD         IFACE           
 ----------------------------------------------------------------------------------
      1      4      3      1       109.5           109.6           0.000    
      2      5      3      1       109.5           109.6           0.000    
      3      4      3      2       109.5           109.6           0.000    
      4      5      3      2       109.5           109.6           0.000    
      5      4      3      3       109.5           109.6           0.000    
      6      5      3      3       109.5           109.6           0.000    
      7      4      3      4       109.5           109.6           0.000    
      8      5      3      4       109.5           109.6           0.000    
      9      4      3      5       109.5           109.6           0.000    
     10      5      3      5       109.5           109.6           0.000    
     11      4      3      6       109.5           109.6           0.000    
     12      5      3      6       109.5           109.6           0.000    
     13      4      3      7       109.5           109.6           0.000    
     14      5      3      7       109.5           109.6           0.000    
     15      4      3      8       109.5           109.6           0.000    
     16      5      3      8       109.5           109.6           0.000    
     17      4      2      8       109.5           109.6           0.000    
     18      5      2      8       109.5           109.6           0.000    
     19      4      2      9       109.5           109.6           0.000    
     20      5      2      9       109.5           109.6           0.000    
     21      4      2     10       109.5           109.6           0.000    
     22      5      2     10       109.5           109.6           0.000    
     23      4      2     11       109.5           109.6           0.000    
     24      5      2     11       109.5           109.6           0.000    
     25      4      2     12       109.5           109.6           0.000    
     26      5      2     12       109.5           109.6           0.000    
     27      4      2     13       109.5           109.6           0.000    
     28      5      2     13       109.5           109.6           0.000    
     29      4      2     14       109.5           109.6           0.000    
     30      5      2     14       109.5           109.6           0.000    
     31      4      2     15       109.5           109.6           0.000    
     32      5      2     15       109.5           109.6           0.000    
     33      4      2     16       109.5           109.6           0.000    
     34      5      2     16       109.5           109.6           0.000    
     35      4      2     17       109.5           109.6           0.000    
     36      5      2     17       109.5           109.6           0.000    
     37      4      2     18       109.5           109.6           0.000    
     38      5      2     18       109.5           109.6           0.000    
     39      4      2     19       109.5           109.6           0.000    
     40      5      2     19       109.5           109.6           0.000    
     41      4      2     20       109.5           109.6           0.000    
     42      5      2     20       109.5           109.6           0.000    
     43      4      2     21       109.5           109.6           0.000    
     44      5      2     21       109.5           109.6           0.000    
     45      4      2     22       109.5           109.6           0.000    
     46      5      2     22       109.5           109.6           0.000    
     47      4      2     23       109.5           109.6           0.000    
     48      5      2     23       109.5           109.6           0.000    
     49      4      2     24       109.5           109.6           0.000    
     50      5      2     24       109.5           109.6           0.000    
     51      4      2     25       109.5           109.6           0.000    
     52      5      2     25       109.5           109.6           0.000    
     53      4      2     26       109.5           109.6           0.000    
     54      5      2     26       109.5           109.6           0.000    
     55      4      1     26       109.5           109.6           0.000    
     56      5      1     26       109.5           109.6           0.000    
     57      4      1     27       109.5           109.6           0.000    
     58      5      1     27       109.5           109.6           0.000    
     59      4      1     28       109.5           109.6           0.000    
     60      5      1     28       109.5           109.6           0.000    
     61      4      1     29       109.5           109.6           0.000    
     62      5      1     29       109.5           109.6           0.000    
     63      4      1     30       109.5           109.6           0.000    
     64      5      1     30       109.5           109.6           0.000    
     65      4      1     31       109.5           109.6           0.000    
     66      5      1     31       109.5           109.6           0.000    
     67      4      1     32       109.5           109.6           0.000    
     68      5      1     32       109.5           109.6           0.000    
     69      4      1     33       109.5           109.6           0.000    
     70      5      1     33       109.5           109.6           0.000    
     71      4      1     34       109.5           109.6           0.000    
     72      5      1     34       109.5           109.6           0.000    
     73      4      1     35       109.5           109.6           0.000    
     74      5      1     35       109.5           109.6           0.000    
     75      4     36     35       109.6           109.5           0.000    
     76      5     36     35       109.6           109.5           0.000    
     77      4     35     34       109.6           109.5           0.000    
     78      5     35     34       109.6           109.5           0.000    
     79      4     36     34       109.6           109.5           0.000    
     80      5     36     34       109.6           109.5           0.000    
     81      4     36     33       109.6           109.5           0.000    
     82      5     36     33       109.6           109.5           0.000    
     83      4     36     32       109.6           109.5           0.000    
     84      5     36     32       109.6           109.5           0.000    
     85      4     37     32       109.6           109.5           0.000    
     86      5     37     32       109.6           109.5           0.000    
     87      4     37     31       109.6           109.5           0.000    
     88      5     37     31       109.6           109.5           0.000    
     89      4     38     31       109.6           109.5           0.000    
     90      5     38     31       109.6           109.5           0.000    
     91      4     38     30       109.6           109.5           0.000    
     92      5     38     30       109.6           109.5           0.000    
     93      4     39     30       109.6           109.5           0.000    
     94      5     39     30       109.6           109.5           0.000    
     95      4     39     29       109.6           109.5           0.000    
     96      5     39     29       109.6           109.5           0.000    
     97      4     40     29       109.6           109.5           0.000    
     98      5     40     29       109.6           109.5           0.000    
     99      4     40     28       109.6           109.5           0.000    
    100      5     40     28       109.6           109.5           0.000    
    101      4     40     27       109.6           109.5           0.000    
    102      5     40     27       109.6           109.5           0.000    
    103      4     41     27       109.6           109.5           0.000    
    104      5     41     27       109.6           109.5           0.000    
    105      4     41     26       109.6           109.5           0.000    
    106      5     41     26       109.6           109.5           0.000    
    107      4     41     25       109.6           109.5           0.000    
    108      5     41     25       109.6           109.5           0.000    
    109      4     41     24       109.6           109.5           0.000    
    110      5     41     24       109.6           109.5           0.000    
    111      4     41     23       109.6           109.5           0.000    
    112      5     41     23       109.6           109.5           0.000    
    113      4     41     22       109.6           109.5           0.000    
    114      5     41     22       109.6           109.5           0.000    
    115      4     42     22       109.6           109.5           0.000    
    116      5     42     22       109.6           109.5           0.000    
    117      4     42     21       109.6           109.4           0.000    
    118      5     42     21       109.6           109.4           0.000    
    119      4     42     20       109.6           109.4           0.000    
    120      5     42     20       109.6           109.4           0.000    
    121      4     42     19       109.6           109.4           0.000    
    122      5     42     19       109.6           109.4           0.000    
    123      4     43     18       109.6           109.4           0.000    
    124      5     43     18       109.6           109.4           0.000    
    125      4     42     18       109.6           109.4           0.000    
    126      5     42     18       109.6           109.4           0.000    
    127      4     42     17       109.5           109.4           0.000    
    128      5     42     17       109.5           109.4           0.000    
    129      4     42     16       109.5           109.4           0.000    
    130      5     42     16       109.5           109.4           0.000    
    131      4     42     15       109.5           109.4           0.000    
    132      5     42     15       109.5           109.4           0.000    
    133      4     43     15       109.5           109.4           0.000    
    134      5     43     15       109.5           109.4           0.000    
    135      4     43     14       109.5           109.4           0.000    
    136      5     43     14       109.5           109.4           0.000    
    137      4     43     13       109.5           109.4           0.000    
    138      5     43     13       109.5           109.4           0.000    
    139      4     43     12       109.5           109.4           0.000    
    140      5     43     12       109.5           109.4           0.000    
    141      4     43     11       109.5           109.4           0.000    
    142      5     43     11       109.5           109.4           0.000    
    143      4     43     10       109.5           109.4           0.000    
    144      5     43     10       109.5           109.4           0.000    
    145      4     44     10       109.5           109.4           0.000    
    146      5     44     10       109.5           109.4           0.000    
    147      4     44      9       109.5           109.4           0.000    
    148      5     44      9       109.5           109.4           0.000    
    149      4     44      8       109.5           109.4           0.000    
    150      5     44      8       109.5           109.4           0.000    
    151      4     44      7       109.5           109.4           0.000    
    152      5     44      7       109.5           109.4           0.000    
    153      4     44      6       109.5           109.4           0.000    
    154      5     44      6       109.5           109.4           0.000    
    155      4     44      5       109.5           109.4           0.000    
    156      5     44      5       109.5           109.4           0.000    
    157      4     44      4       109.5           109.4           0.000    
    158      5     44      4       109.5           109.4           0.000    
    159      4     44      3       109.5           109.4           0.000    
    160      5     44      3       109.5           109.4           0.000    
    161      4     45      3       109.5           109.4           0.000    
    162      5     45      3       109.5           109.4           0.000    
    163      4     45      2       109.5           109.4           0.000    
    164      5     45      2       109.5           109.4           0.000    
    165      4     45      1       109.5           109.4           0.000    
    166      5     45      1       109.5           109.4           0.000    


    166 TIME-VARIANT SPECIFIED-HEAD CELLS

 SOLVING FOR HEAD 


     4 CALLS TO PCG ROUTINE FOR TIME STEP   1 IN STRESS PERIOD   36
    68 TOTAL ITERATIONS

 MAXIMUM HEAD CHANGE FOR EACH ITERATION (1 INDICATES THE FIRST INNER ITERATION):

    HEAD CHANGE    HEAD CHANGE    HEAD CHANGE    HEAD CHANGE    HEAD CHANGE 
   LAYER,ROW,COL  LAYER,ROW,COL  LAYER,ROW,COL  LAYER,ROW,COL  LAYER,ROW,COL
 ---------------------------------------------------------------------------
  1 -0.2137      0 -0.2163      0  0.1484      0 -0.1331      0 -0.1534    
   (  5, 43,  5)  (  5, 29,  2)  (  5, 38,  2)  (  5, 35,  3)  (  5, 37,  1)
  0  0.9681E-01  0 -0.5656E-01  0  0.7742E-01  0  0.5681E-01  0  0.3900E-01
   (  5, 36,  2)  (  5, 40,  1)  (  5, 37,  1)  (  5, 39,  1)  (  5, 40,  1)
  0 -0.4297E-01  0  0.2452E-01  0 -0.2355E-01  0 -0.2094E-01  0  0.1566E-01
   (  5, 38,  1)  (  5, 32,  5)  (  5, 37,  5)  (  5, 34,  9)  (  5, 37,  1)
  0 -0.1096E-01  0 -0.8584E-02  0  0.8792E-02  0 -0.5321E-02  0  0.5603E-02
   (  5, 35,  2)  (  5, 31,  9)  (  5, 35,  8)  (  5, 34,  9)  (  5, 36,  7)
  0  0.3412E-02  0 -0.3183E-02  0  0.2720E-02  0 -0.2861E-02  0  0.1877E-02
   (  5, 31,  3)  (  5, 36,  4)  (  5, 36,  1)  (  5, 14,  1)  (  5, 41,  2)
  0 -0.1717E-02  0  0.1107E-02  0 -0.8244E-03  0 -0.8877E-03  0  0.5677E-03
   (  5, 39,  1)  (  5, 37,  2)  (  5, 35,  5)  (  5, 39,  4)  (  5, 14,  1)
  1 -0.3143E-03  0 -0.4219E-03  0  0.4174E-03  0  0.2683E-03  0  0.3122E-03
   (  5, 30,  3)  (  5, 14,  1)  (  5, 13,  1)  (  5, 25,  5)  (  5, 33,  1)
  0 -0.2654E-03  0  0.2989E-03  0 -0.2705E-03  0  0.2090E-03  0 -0.1501E-03
   (  5, 38,  6)  (  5, 37,  2)  (  5, 39,  1)  (  5, 14,  1)  (  5, 39,  1)
  0 -0.1279E-03  0  0.8283E-04  0 -0.8914E-04  0  0.8053E-04  0  0.4663E-04
   (  5, 33,  1)  (  5, 29,  2)  (  5, 39,  2)  (  5, 41,  2)  (  5, 31,  7)
  0 -0.3238E-04  0  0.4834E-04  0 -0.2109E-04  0  0.2527E-04  0 -0.1613E-04
   (  5, 34,  9)  (  5, 39,  1)  (  5, 35,  2)  (  5, 37,  4)  (  5, 25, 11)
  0  0.1650E-04  0 -0.1108E-04  0  0.1025E-04  0  0.8307E-05  0  0.7600E-05
   (  5, 36,  1)  (  5, 31,  3)  (  5, 32,  5)  (  5, 41,  5)  (  5, 40,  1)
  0  0.6709E-05  0  0.5455E-05  0 -0.2802E-05  0  0.3632E-05  0  0.1351E-05
   (  5, 37,  6)  (  5, 36,  1)  (  5, 40,  3)  (  5, 43,  5)  (  5, 30,  5)
  1 -0.1217E-05  0  0.1554E-05  0 -0.1598E-05  0  0.1491E-05  0 -0.1466E-05
   (  5, 29,  3)  (  5, 34,  1)  (  5, 40,  7)  (  5, 39,  1)  (  5, 36,  1)
  0 -0.1423E-05  0  0.8166E-06  1 -0.6195E-06
   (  5, 37,  6)  (  5, 36,  2)  (  5, 36,  2)

 MAXIMUM RESIDUAL FOR EACH ITERATION (1 INDICATES THE FIRST INNER ITERATION):

    RESIDUAL       RESIDUAL       RESIDUAL       RESIDUAL       RESIDUAL    
   LAYER,ROW,COL  LAYER,ROW,COL  LAYER,ROW,COL  LAYER,ROW,COL  LAYER,ROW,COL
 ---------------------------------------------------------------------------
  1  0.1933E-02  0  0.1300E-02  0  0.1030E-02  0  0.7834E-03  0  0.6299E-03
   (  4, 44,  2)  (  4, 44,  2)  (  4, 44,  2)  (  3, 40, 27)  (  3, 40, 27)
  0  0.5229E-03  0  0.4621E-03  0 -0.3905E-03  0 -0.3260E-03  0 -0.2742E-03
   (  3, 40, 27)  (  3, 40, 27)  (  4, 43,  6)  (  4, 43,  5)  (  4, 43,  4)
  0 -0.2183E-03  0 -0.2014E-03  0 -0.1736E-03  0 -0.1375E-03  0 -0.1145E-03
   (  4, 43,  4)  (  4, 43,  4)  (  4, 43,  4)  (  4, 44,  2)  (  4, 44,  2)
  0 -0.1058E-03  0 -0.8487E-04  0 -0.6408E-04  0 -0.4834E-04  0 -0.3516E-04
   (  4, 44,  2)  (  4, 44,  2)  (  4, 44,  2)  (  4, 44,  2)  (  4, 44,  2)
  0 -0.3238E-04  0 -0.2786E-04  0 -0.2577E-04  0 -0.2070E-04  0 -0.1661E-04
   (  4, 34, 35)  (  4, 34, 35)  (  4, 34, 35)  (  4, 34, 35)  (  4, 34, 35)
  0 -0.1389E-04  0 -0.1281E-04  0 -0.1137E-04  0 -0.8959E-05  0 -0.6547E-05
   (  4, 34, 35)  (  4, 34, 35)  (  4, 34, 35)  (  4, 34, 35)  (  4, 34, 35)
  1 -0.6491E-05  0 -0.6126E-05  0 -0.5038E-05  0 -0.4612E-05  0 -0.4015E-05
   (  4, 34, 35)  (  4, 34, 35)  (  4, 34, 35)  (  4, 34, 35)  (  4, 34, 35)
  0 -0.3161E-05  0 -0.2739E-05  0 -0.1959E-05  0 -0.1386E-05  0 -0.1003E-05
   (  4, 34, 35)  (  4, 34, 35)  (  4, 34, 35)  (  4, 34, 35)  (  4, 34, 35)
  0 -0.7233E-06  0 -0.6490E-06  0  0.5181E-06  0  0.4309E-06  0  0.3592E-06
   (  4, 34, 35)  (  4, 34, 35)  (  4, 35, 35)  (  4, 35, 35)  (  4, 35, 35)
  0  0.2916E-06  0  0.2301E-06  0  0.2099E-06  0  0.1574E-06  0  0.1180E-06
   (  4, 35, 35)  (  4, 35, 35)  (  4, 35, 35)  (  4, 35, 35)  (  4, 35, 35)
  0  0.1011E-06  0  0.8691E-07  0  0.7328E-07  0  0.5074E-07  0  0.3679E-07
   (  4, 35, 35)  (  4, 35, 35)  (  4, 35, 35)  (  4, 35, 35)  (  4, 35, 35)
  0  0.2512E-07  0  0.2271E-07  0  0.2132E-07  0  0.1581E-07  0  0.1493E-07
   (  4, 35, 35)  (  4, 44,  2)  (  4, 44,  2)  (  4, 44,  2)  (  4, 44,  2)
  1  0.1488E-07  0  0.1439E-07  0  0.1336E-07  0  0.1090E-07  0  0.8922E-08
   (  4, 44,  2)  (  4, 44,  2)  (  4, 44,  2)  (  4, 44,  2)  (  4, 44,  2)
  0  0.6213E-08  0 -0.4813E-08  1 -0.4760E-08
   (  4, 44,  2)  (  3,  3,  1)  (  3,  3,  1)



 OUTPUT CONTROL FOR STRESS PERIOD   36   TIME STEP    1
    SAVE HEAD FOR ALL LAYERS
    SAVE DRAWDOWN FOR ALL LAYERS
    SAVE BUDGET
    PRINT BUDGET
 UBDSV1 SAVING "         STORAGE" ON UNIT   9 AT TIME STEP  1, STRESS PERIOD  36
 UBDSV2 SAVING "   CONSTANT HEAD" ON UNIT   9 AT TIME STEP  1, STRESS PERIOD  36
 UBDSV1 SAVING "FLOW RIGHT FACE " ON UNIT   9 AT TIME STEP  1, STRESS PERIOD  36
 UBDSV1 SAVING "FLOW FRONT FACE " ON UNIT   9 AT TIME STEP  1, STRESS PERIOD  36
 UBDSV1 SAVING "FLOW LOWER FACE " ON UNIT   9 AT TIME STEP  1, STRESS PERIOD  36
 UBDSV3 SAVING "        RECHARGE" ON UNIT   9 AT TIME STEP  1, STRESS PERIOD  36

 HEAD WILL BE SAVED ON UNIT   37 AT END OF TIME STEP    1, STRESS PERIOD   36

 DRAWDOWN WILL BE SAVED ON UNIT   38 AT END OF TIME STEP    1, STRESS PERIOD   36
1
  VOLUMETRIC BUDGET FOR ENTIRE MODEL AT END OF TIME STEP    1, STRESS PERIOD  36
  ------------------------------------------------------------------------------

     CUMULATIVE VOLUMES      L**3       RATES FOR THIS TIME STEP      L**3/T
     ------------------                 ------------------------

           IN:                                      IN:
           ---                                      ---
             STORAGE =        8670.7422               STORAGE =       2.9456E-04
       CONSTANT HEAD =       11586.8311         CONSTANT HEAD =       2.6276E-03
            RECHARGE =         458.8450              RECHARGE =       1.0213E-04

            TOTAL IN =       20716.4199              TOTAL IN =       3.0243E-03

          OUT:                                     OUT:
          ----                                     ----
             STORAGE =        3839.7554               STORAGE =       2.1366E-03
       CONSTANT HEAD =       16877.1797         CONSTANT HEAD =       8.8779E-04
            RECHARGE =           0.0000              RECHARGE =           0.0000

           TOTAL OUT =       20716.9355             TOTAL OUT =       3.0244E-03

            IN - OUT =          -0.5156              IN - OUT =      -8.3353E-08

 PERCENT DISCREPANCY =          -0.00     PERCENT DISCREPANCY =          -0.00






         TIME SUMMARY AT END OF TIME STEP    1 IN STRESS PERIOD   36
                    SECONDS     MINUTES      HOURS       DAYS        YEARS
                    -----------------------------------------------------------
   TIME STEP LENGTH  86400.      1440.0      24.000      1.0000     2.73785E-03
 STRESS PERIOD TIME  86400.      1440.0      24.000      1.0000     2.73785E-03
         TOTAL TIME 4.49280E+06  74880.      1248.0      52.000     0.14237    
1
1
                            STRESS PERIOD NO.   37, LENGTH =   86400.00    
                            -----------------------------------------------

                              NUMBER OF TIME STEPS =     1

                               MULTIPLIER FOR DELT =     1.000

                            INITIAL TIME STEP SIZE =   86400.00    

 REUSING RECH FROM LAST STRESS PERIOD

 CHD NO.   LAYER   ROW   COL    START HEAD        END HEAD         IFACE           
 ----------------------------------------------------------------------------------
      1      4      3      1       109.6           109.6           0.000    
      2      5      3      1       109.6           109.6           0.000    
      3      4      3      2       109.6           109.6           0.000    
      4      5      3      2       109.6           109.6           0.000    
      5      4      3      3       109.6           109.6           0.000    
      6      5      3      3       109.6           109.6           0.000    
      7      4      3      4       109.6           109.6           0.000    
      8      5      3      4       109.6           109.6           0.000    
      9      4      3      5       109.6           109.6           0.000    
     10      5      3      5       109.6           109.6           0.000    
     11      4      3      6       109.6           109.6           0.000    
     12      5      3      6       109.6           109.6           0.000    
     13      4      3      7       109.6           109.6           0.000    
     14      5      3      7       109.6           109.6           0.000    
     15      4      3      8       109.6           109.6           0.000    
     16      5      3      8       109.6           109.6           0.000    
     17      4      2      8       109.6           109.6           0.000    
     18      5      2      8       109.6           109.6           0.000    
     19      4      2      9       109.6           109.6           0.000    
     20      5      2      9       109.6           109.6           0.000    
     21      4      2     10       109.6           109.6           0.000    
     22      5      2     10       109.6           109.6           0.000    
     23      4      2     11       109.6           109.6           0.000    
     24      5      2     11       109.6           109.6           0.000    
     25      4      2     12       109.6           109.6           0.000    
     26      5      2     12       109.6           109.6           0.000    
     27      4      2     13       109.6           109.6           0.000    
     28      5      2     13       109.6           109.6           0.000    
     29      4      2     14       109.6           109.6           0.000    
     30      5      2     14       109.6           109.6           0.000    
     31      4      2     15       109.6           109.6           0.000    
     32      5      2     15       109.6           109.6           0.000    
     33      4      2     16       109.6           109.6           0.000    
     34      5      2     16       109.6           109.6           0.000    
     35      4      2     17       109.6           109.6           0.000    
     36      5      2     17       109.6           109.6           0.000    
     37      4      2     18       109.6           109.6           0.000    
     38      5      2     18       109.6           109.6           0.000    
     39      4      2     19       109.6           109.6           0.000    
     40      5      2     19       109.6           109.6           0.000    
     41      4      2     20       109.6           109.6           0.000    
     42      5      2     20       109.6           109.6           0.000    
     43      4      2     21       109.6           109.6           0.000    
     44      5      2     21       109.6           109.6           0.000    
     45      4      2     22       109.6           109.6           0.000    
     46      5      2     22       109.6           109.6           0.000    
     47      4      2     23       109.6           109.6           0.000    
     48      5      2     23       109.6           109.6           0.000    
     49      4      2     24       109.6           109.6           0.000    
     50      5      2     24       109.6           109.6           0.000    
     51      4      2     25       109.6           109.6           0.000    
     52      5      2     25       109.6           109.6           0.000    
     53      4      2     26       109.6           109.6           0.000    
     54      5      2     26       109.6           109.6           0.000    
     55      4      1     26       109.6           109.6           0.000    
     56      5      1     26       109.6           109.6           0.000    
     57      4      1     27       109.6           109.6           0.000    
     58      5      1     27       109.6           109.6           0.000    
     59      4      1     28       109.6           109.6           0.000    
     60      5      1     28       109.6           109.6           0.000    
     61      4      1     29       109.6           109.6           0.000    
     62      5      1     29       109.6           109.6           0.000    
     63      4      1     30       109.6           109.6           0.000    
     64      5      1     30       109.6           109.6           0.000    
     65      4      1     31       109.6           109.6           0.000    
     66      5      1     31       109.6           109.6           0.000    
     67      4      1     32       109.6           109.6           0.000    
     68      5      1     32       109.6           109.6           0.000    
     69      4      1     33       109.6           109.6           0.000    
     70      5      1     33       109.6           109.6           0.000    
     71      4      1     34       109.6           109.6           0.000    
     72      5      1     34       109.6           109.6           0.000    
     73      4      1     35       109.6           109.6           0.000    
     74      5      1     35       109.6           109.6           0.000    
     75      4     36     35       109.5           109.4           0.000    
     76      5     36     35       109.5           109.4           0.000    
     77      4     35     34       109.5           109.4           0.000    
     78      5     35     34       109.5           109.4           0.000    
     79      4     36     34       109.5           109.4           0.000    
     80      5     36     34       109.5           109.4           0.000    
     81      4     36     33       109.5           109.4           0.000    
     82      5     36     33       109.5           109.4           0.000    
     83      4     36     32       109.5           109.4           0.000    
     84      5     36     32       109.5           109.4           0.000    
     85      4     37     32       109.5           109.4           0.000    
     86      5     37     32       109.5           109.4           0.000    
     87      4     37     31       109.5           109.4           0.000    
     88      5     37     31       109.5           109.4           0.000    
     89      4     38     31       109.5           109.4           0.000    
     90      5     38     31       109.5           109.4           0.000    
     91      4     38     30       109.5           109.4           0.000    
     92      5     38     30       109.5           109.4           0.000    
     93      4     39     30       109.5           109.4           0.000    
     94      5     39     30       109.5           109.4           0.000    
     95      4     39     29       109.5           109.4           0.000    
     96      5     39     29       109.5           109.4           0.000    
     97      4     40     29       109.5           109.4           0.000    
     98      5     40     29       109.5           109.4           0.000    
     99      4     40     28       109.5           109.4           0.000    
    100      5     40     28       109.5           109.4           0.000    
    101      4     40     27       109.5           109.4           0.000    
    102      5     40     27       109.5           109.4           0.000    
    103      4     41     27       109.5           109.4           0.000    
    104      5     41     27       109.5           109.4           0.000    
    105      4     41     26       109.5           109.4           0.000    
    106      5     41     26       109.5           109.4           0.000    
    107      4     41     25       109.5           109.4           0.000    
    108      5     41     25       109.5           109.4           0.000    
    109      4     41     24       109.5           109.4           0.000    
    110      5     41     24       109.5           109.4           0.000    
    111      4     41     23       109.5           109.4           0.000    
    112      5     41     23       109.5           109.4           0.000    
    113      4     41     22       109.5           109.4           0.000    
    114      5     41     22       109.5           109.4           0.000    
    115      4     42     22       109.5           109.4           0.000    
    116      5     42     22       109.5           109.4           0.000    
    117      4     42     21       109.4           109.4           0.000    
    118      5     42     21       109.4           109.4           0.000    
    119      4     42     20       109.4           109.4           0.000    
    120      5     42     20       109.4           109.4           0.000    
    121      4     42     19       109.4           109.4           0.000    
    122      5     42     19       109.4           109.4           0.000    
    123      4     43     18       109.4           109.4           0.000    
    124      5     43     18       109.4           109.4           0.000    
    125      4     42     18       109.4           109.4           0.000    
    126      5     42     18       109.4           109.4           0.000    
    127      4     42     17       109.4           109.4           0.000    
    128      5     42     17       109.4           109.4           0.000    
    129      4     42     16       109.4           109.4           0.000    
    130      5     42     16       109.4           109.4           0.000    
    131      4     42     15       109.4           109.4           0.000    
    132      5     42     15       109.4           109.4           0.000    
    133      4     43     15       109.4           109.4           0.000    
    134      5     43     15       109.4           109.4           0.000    
    135      4     43     14       109.4           109.4           0.000    
    136      5     43     14       109.4           109.4           0.000    
    137      4     43     13       109.4           109.4           0.000    
    138      5     43     13       109.4           109.4           0.000    
    139      4     43     12       109.4           109.4           0.000    
    140      5     43     12       109.4           109.4           0.000    
    141      4     43     11       109.4           109.4           0.000    
    142      5     43     11       109.4           109.4           0.000    
    143      4     43     10       109.4           109.4           0.000    
    144      5     43     10       109.4           109.4           0.000    
    145      4     44     10       109.4           109.4           0.000    
    146      5     44     10       109.4           109.4           0.000    
    147      4     44      9       109.4           109.4           0.000    
    148      5     44      9       109.4           109.4           0.000    
    149      4     44      8       109.4           109.4           0.000    
    150      5     44      8       109.4           109.4           0.000    
    151      4     44      7       109.4           109.4           0.000    
    152      5     44      7       109.4           109.4           0.000    
    153      4     44      6       109.4           109.4           0.000    
    154      5     44      6       109.4           109.4           0.000    
    155      4     44      5       109.4           109.4           0.000    
    156      5     44      5       109.4           109.4           0.000    
    157      4     44      4       109.4           109.4           0.000    
    158      5     44      4       109.4           109.4           0.000    
    159      4     44      3       109.4           109.4           0.000    
    160      5     44      3       109.4           109.4           0.000    
    161      4     45      3       109.4           109.4           0.000    
    162      5     45      3       109.4           109.4           0.000    
    163      4     45      2       109.4           109.4           0.000    
    164      5     45      2       109.4           109.4           0.000    
    165      4     45      1       109.4           109.4           0.000    
    166      5     45      1       109.4           109.4           0.000    


    166 TIME-VARIANT SPECIFIED-HEAD CELLS

 SOLVING FOR HEAD 


     3 CALLS TO PCG ROUTINE FOR TIME STEP   1 IN STRESS PERIOD   37
    61 TOTAL ITERATIONS

 MAXIMUM HEAD CHANGE FOR EACH ITERATION (1 INDICATES THE FIRST INNER ITERATION):

    HEAD CHANGE    HEAD CHANGE    HEAD CHANGE    HEAD CHANGE    HEAD CHANGE 
   LAYER,ROW,COL  LAYER,ROW,COL  LAYER,ROW,COL  LAYER,ROW,COL  LAYER,ROW,COL
 ---------------------------------------------------------------------------
  1 -0.1427      0  0.8573E-01  0 -0.5531E-01  0  0.4373E-01  0 -0.6990E-01
   (  5, 43,  5)  (  5, 35,  1)  (  5, 31,  2)  (  5, 27,  3)  (  5, 37,  1)
  0  0.3570E-01  0 -0.3580E-01  0  0.4230E-01  0  0.2532E-01  0  0.1980E-01
   (  5, 35,  2)  (  5, 40,  1)  (  5, 37,  1)  (  5, 37,  6)  (  5, 40,  2)
  0 -0.1413E-01  0  0.1021E-01  0 -0.7545E-02  0  0.9355E-02  0 -0.8811E-02
   (  5, 38,  1)  (  5, 29,  3)  (  5, 32,  2)  (  5, 31,  9)  (  5, 36,  8)
  0 -0.4396E-02  0  0.4554E-02  0 -0.3690E-02  0  0.3272E-02  0 -0.2167E-02
   (  5, 34,  1)  (  5, 36,  4)  (  5, 31,  9)  (  5, 29,  9)  (  5, 29, 11)
  0  0.1698E-02  0  0.1872E-02  0 -0.9531E-03  0  0.1419E-02  0 -0.9511E-03
   (  5, 39,  4)  (  5, 32,  4)  (  5, 36,  3)  (  5, 40,  1)  (  5, 39,  1)
  0  0.8992E-03  0 -0.6110E-03  0  0.3966E-03  0 -0.4190E-03  0 -0.3070E-03
   (  5, 37,  1)  (  5, 39,  4)  (  5, 35,  3)  (  5, 34,  4)  (  5, 35,  1)
  1 -0.2004E-03  0 -0.1350E-03  0  0.1699E-03  0 -0.1297E-03  0  0.1879E-03
   (  5, 13,  1)  (  5, 31,  2)  (  5, 39,  1)  (  5, 34,  3)  (  5, 38,  4)
  0 -0.1445E-03  0  0.1081E-03  0 -0.7396E-04  0  0.7569E-04  0 -0.6687E-04
   (  5, 37,  1)  (  5, 40,  1)  (  5, 39,  1)  (  5, 37,  1)  (  5, 14,  1)
  0  0.3760E-04  0  0.2549E-04  0 -0.3588E-04  0 -0.2583E-04  0  0.1925E-04
   (  5, 41,  2)  (  5, 31,  3)  (  5, 34,  8)  (  5, 15,  1)  (  5, 29,  8)
  0 -0.1549E-04  0 -0.1494E-04  0  0.1360E-04  0 -0.1350E-04  0  0.8166E-05
   (  5, 31,  9)  (  5, 34,  3)  (  5, 37,  4)  (  5, 37,  8)  (  5, 36,  6)
  0  0.4121E-05  0 -0.5909E-05  0  0.3936E-05  0 -0.3559E-05  0  0.3828E-05
   (  5, 32,  5)  (  5, 33,  9)  (  5, 34,  1)  (  5, 37,  1)  (  5, 40,  1)
  0  0.2749E-05  0  0.1575E-05  0 -0.1202E-05  0  0.1610E-05  0  0.6785E-06
   (  5, 37,  1)  (  5, 36,  3)  (  5, 35,  1)  (  5, 41,  1)  (  5, 32,  1)
  1 -0.6091E-06
   (  5, 30,  2)

 MAXIMUM RESIDUAL FOR EACH ITERATION (1 INDICATES THE FIRST INNER ITERATION):

    RESIDUAL       RESIDUAL       RESIDUAL       RESIDUAL       RESIDUAL    
   LAYER,ROW,COL  LAYER,ROW,COL  LAYER,ROW,COL  LAYER,ROW,COL  LAYER,ROW,COL
 ---------------------------------------------------------------------------
  1  0.8848E-03  0  0.7020E-03  0  0.5996E-03  0  0.4937E-03  0  0.3870E-03
   (  4, 44,  2)  (  4, 44,  2)  (  4, 44,  2)  (  4, 44,  2)  (  3, 40, 27)
  0  0.3376E-03  0  0.2872E-03  0  0.2270E-03  0  0.1800E-03  0  0.1502E-03
   (  3, 40, 27)  (  3, 40, 27)  (  3, 40, 27)  (  3, 40, 27)  (  4, 35, 35)
  0  0.1202E-03  0  0.9644E-04  0  0.8745E-04  0  0.6467E-04  0 -0.4972E-04
   (  4, 35, 35)  (  4, 35, 35)  (  4, 35, 35)  (  4, 35, 35)  (  3, 35, 35)
  0 -0.4528E-04  0 -0.3713E-04  0 -0.3040E-04  0 -0.2537E-04  0 -0.2060E-04
   (  3, 35, 35)  (  3, 35, 35)  (  4, 34, 35)  (  4, 34, 35)  (  4, 34, 35)
  0 -0.1823E-04  0 -0.1625E-04  0 -0.1529E-04  0 -0.1204E-04  0 -0.9667E-05
   (  4, 34, 35)  (  4, 34, 35)  (  4, 34, 35)  (  4, 34, 35)  (  4, 34, 35)
  0 -0.8214E-05  0 -0.7077E-05  0 -0.6536E-05  0 -0.5272E-05  0 -0.3959E-05
   (  4, 34, 35)  (  4, 34, 35)  (  4, 34, 35)  (  4, 34, 35)  (  4, 34, 35)
  1 -0.3780E-05  0 -0.3701E-05  0 -0.3109E-05  0 -0.2922E-05  0 -0.2411E-05
   (  4, 34, 35)  (  4, 34, 35)  (  4, 34, 35)  (  4, 34, 35)  (  4, 34, 35)
  0 -0.2081E-05  0 -0.1525E-05  0 -0.1231E-05  0 -0.9912E-06  0 -0.7181E-06
   (  4, 34, 35)  (  4, 34, 35)  (  4, 34, 35)  (  4, 34, 35)  (  4, 34, 35)
  0 -0.5808E-06  0  0.5378E-06  0  0.4321E-06  0  0.3411E-06  0  0.2764E-06
   (  4, 34, 35)  (  4, 35, 35)  (  4, 35, 35)  (  4, 35, 35)  (  4, 35, 35)
  0  0.2421E-06  0  0.2092E-06  0  0.1643E-06  0  0.1260E-06  0  0.9513E-07
   (  4, 35, 35)  (  4, 35, 35)  (  4, 35, 35)  (  4, 35, 35)  (  4, 35, 35)
  0  0.8871E-07  0  0.6829E-07  0  0.4919E-07  0  0.4304E-07  0  0.3020E-07
   (  4, 35, 35)  (  4, 35, 35)  (  4, 35, 35)  (  4, 35, 35)  (  4, 35, 35)
  0  0.2067E-07  0  0.1591E-07  0  0.1388E-07  0  0.9905E-08  0  0.8828E-08
   (  4, 35, 35)  (  4, 35, 35)  (  4, 35, 35)  (  4, 35, 35)  (  4, 35, 35)
  1  0.8797E-08
   (  4, 35, 35)



 OUTPUT CONTROL FOR STRESS PERIOD   37   TIME STEP    1
    SAVE HEAD FOR ALL LAYERS
    SAVE DRAWDOWN FOR ALL LAYERS
    SAVE BUDGET
    PRINT BUDGET
 UBDSV1 SAVING "         STORAGE" ON UNIT   9 AT TIME STEP  1, STRESS PERIOD  37
 UBDSV2 SAVING "   CONSTANT HEAD" ON UNIT   9 AT TIME STEP  1, STRESS PERIOD  37
 UBDSV1 SAVING "FLOW RIGHT FACE " ON UNIT   9 AT TIME STEP  1, STRESS PERIOD  37
 UBDSV1 SAVING "FLOW FRONT FACE " ON UNIT   9 AT TIME STEP  1, STRESS PERIOD  37
 UBDSV1 SAVING "FLOW LOWER FACE " ON UNIT   9 AT TIME STEP  1, STRESS PERIOD  37
 UBDSV3 SAVING "        RECHARGE" ON UNIT   9 AT TIME STEP  1, STRESS PERIOD  37

 HEAD WILL BE SAVED ON UNIT   37 AT END OF TIME STEP    1, STRESS PERIOD   37

 DRAWDOWN WILL BE SAVED ON UNIT   38 AT END OF TIME STEP    1, STRESS PERIOD   37
1
  VOLUMETRIC BUDGET FOR ENTIRE MODEL AT END OF TIME STEP    1, STRESS PERIOD  37
  ------------------------------------------------------------------------------

     CUMULATIVE VOLUMES      L**3       RATES FOR THIS TIME STEP      L**3/T
     ------------------                 ------------------------

           IN:                                      IN:
           ---                                      ---
             STORAGE =        8714.9014               STORAGE =       5.1110E-04
       CONSTANT HEAD =       11743.4824         CONSTANT HEAD =       1.8131E-03
            RECHARGE =         467.6689              RECHARGE =       1.0213E-04

            TOTAL IN =       20926.0508              TOTAL IN =       2.4263E-03

          OUT:                                     OUT:
          ----                                     ----
             STORAGE =        3851.8235               STORAGE =       1.3968E-04
       CONSTANT HEAD =       17074.7695         CONSTANT HEAD =       2.2869E-03
            RECHARGE =           0.0000              RECHARGE =           0.0000

           TOTAL OUT =       20926.5938             TOTAL OUT =       2.4266E-03

            IN - OUT =          -0.5430              IN - OUT =      -2.6613E-07

 PERCENT DISCREPANCY =          -0.00     PERCENT DISCREPANCY =          -0.01






         TIME SUMMARY AT END OF TIME STEP    1 IN STRESS PERIOD   37
                    SECONDS     MINUTES      HOURS       DAYS        YEARS
                    -----------------------------------------------------------
   TIME STEP LENGTH  86400.      1440.0      24.000      1.0000     2.73785E-03
 STRESS PERIOD TIME  86400.      1440.0      24.000      1.0000     2.73785E-03
         TOTAL TIME 4.57920E+06  76320.      1272.0      53.000     0.14511    
1
1
                            STRESS PERIOD NO.   38, LENGTH =   86400.00    
                            -----------------------------------------------

                              NUMBER OF TIME STEPS =     1

                               MULTIPLIER FOR DELT =     1.000

                            INITIAL TIME STEP SIZE =   86400.00    

 REUSING RECH FROM LAST STRESS PERIOD

 CHD NO.   LAYER   ROW   COL    START HEAD        END HEAD         IFACE           
 ----------------------------------------------------------------------------------
      1      4      3      1       109.6           109.6           0.000    
      2      5      3      1       109.6           109.6           0.000    
      3      4      3      2       109.6           109.6           0.000    
      4      5      3      2       109.6           109.6           0.000    
      5      4      3      3       109.6           109.6           0.000    
      6      5      3      3       109.6           109.6           0.000    
      7      4      3      4       109.6           109.6           0.000    
      8      5      3      4       109.6           109.6           0.000    
      9      4      3      5       109.6           109.6           0.000    
     10      5      3      5       109.6           109.6           0.000    
     11      4      3      6       109.6           109.6           0.000    
     12      5      3      6       109.6           109.6           0.000    
     13      4      3      7       109.6           109.6           0.000    
     14      5      3      7       109.6           109.6           0.000    
     15      4      3      8       109.6           109.6           0.000    
     16      5      3      8       109.6           109.6           0.000    
     17      4      2      8       109.6           109.6           0.000    
     18      5      2      8       109.6           109.6           0.000    
     19      4      2      9       109.6           109.6           0.000    
     20      5      2      9       109.6           109.6           0.000    
     21      4      2     10       109.6           109.6           0.000    
     22      5      2     10       109.6           109.6           0.000    
     23      4      2     11       109.6           109.6           0.000    
     24      5      2     11       109.6           109.6           0.000    
     25      4      2     12       109.6           109.6           0.000    
     26      5      2     12       109.6           109.6           0.000    
     27      4      2     13       109.6           109.6           0.000    
     28      5      2     13       109.6           109.6           0.000    
     29      4      2     14       109.6           109.6           0.000    
     30      5      2     14       109.6           109.6           0.000    
     31      4      2     15       109.6           109.6           0.000    
     32      5      2     15       109.6           109.6           0.000    
     33      4      2     16       109.6           109.6           0.000    
     34      5      2     16       109.6           109.6           0.000    
     35      4      2     17       109.6           109.6           0.000    
     36      5      2     17       109.6           109.6           0.000    
     37      4      2     18       109.6           109.6           0.000    
     38      5      2     18       109.6           109.6           0.000    
     39      4      2     19       109.6           109.6           0.000    
     40      5      2     19       109.6           109.6           0.000    
     41      4      2     20       109.6           109.6           0.000    
     42      5      2     20       109.6           109.6           0.000    
     43      4      2     21       109.6           109.6           0.000    
     44      5      2     21       109.6           109.6           0.000    
     45      4      2     22       109.6           109.6           0.000    
     46      5      2     22       109.6           109.6           0.000    
     47      4      2     23       109.6           109.6           0.000    
     48      5      2     23       109.6           109.6           0.000    
     49      4      2     24       109.6           109.6           0.000    
     50      5      2     24       109.6           109.6           0.000    
     51      4      2     25       109.6           109.6           0.000    
     52      5      2     25       109.6           109.6           0.000    
     53      4      2     26       109.6           109.6           0.000    
     54      5      2     26       109.6           109.6           0.000    
     55      4      1     26       109.6           109.6           0.000    
     56      5      1     26       109.6           109.6           0.000    
     57      4      1     27       109.6           109.6           0.000    
     58      5      1     27       109.6           109.6           0.000    
     59      4      1     28       109.6           109.6           0.000    
     60      5      1     28       109.6           109.6           0.000    
     61      4      1     29       109.6           109.6           0.000    
     62      5      1     29       109.6           109.6           0.000    
     63      4      1     30       109.6           109.6           0.000    
     64      5      1     30       109.6           109.6           0.000    
     65      4      1     31       109.6           109.6           0.000    
     66      5      1     31       109.6           109.6           0.000    
     67      4      1     32       109.6           109.6           0.000    
     68      5      1     32       109.6           109.6           0.000    
     69      4      1     33       109.6           109.6           0.000    
     70      5      1     33       109.6           109.6           0.000    
     71      4      1     34       109.6           109.6           0.000    
     72      5      1     34       109.6           109.6           0.000    
     73      4      1     35       109.6           109.6           0.000    
     74      5      1     35       109.6           109.6           0.000    
     75      4     36     35       109.4           109.4           0.000    
     76      5     36     35       109.4           109.4           0.000    
     77      4     35     34       109.4           109.4           0.000    
     78      5     35     34       109.4           109.4           0.000    
     79      4     36     34       109.4           109.4           0.000    
     80      5     36     34       109.4           109.4           0.000    
     81      4     36     33       109.4           109.4           0.000    
     82      5     36     33       109.4           109.4           0.000    
     83      4     36     32       109.4           109.4           0.000    
     84      5     36     32       109.4           109.4           0.000    
     85      4     37     32       109.4           109.4           0.000    
     86      5     37     32       109.4           109.4           0.000    
     87      4     37     31       109.4           109.4           0.000    
     88      5     37     31       109.4           109.4           0.000    
     89      4     38     31       109.4           109.4           0.000    
     90      5     38     31       109.4           109.4           0.000    
     91      4     38     30       109.4           109.4           0.000    
     92      5     38     30       109.4           109.4           0.000    
     93      4     39     30       109.4           109.4           0.000    
     94      5     39     30       109.4           109.4           0.000    
     95      4     39     29       109.4           109.4           0.000    
     96      5     39     29       109.4           109.4           0.000    
     97      4     40     29       109.4           109.4           0.000    
     98      5     40     29       109.4           109.4           0.000    
     99      4     40     28       109.4           109.4           0.000    
    100      5     40     28       109.4           109.4           0.000    
    101      4     40     27       109.4           109.4           0.000    
    102      5     40     27       109.4           109.4           0.000    
    103      4     41     27       109.4           109.4           0.000    
    104      5     41     27       109.4           109.4           0.000    
    105      4     41     26       109.4           109.4           0.000    
    106      5     41     26       109.4           109.4           0.000    
    107      4     41     25       109.4           109.4           0.000    
    108      5     41     25       109.4           109.4           0.000    
    109      4     41     24       109.4           109.4           0.000    
    110      5     41     24       109.4           109.4           0.000    
    111      4     41     23       109.4           109.4           0.000    
    112      5     41     23       109.4           109.4           0.000    
    113      4     41     22       109.4           109.4           0.000    
    114      5     41     22       109.4           109.4           0.000    
    115      4     42     22       109.4           109.4           0.000    
    116      5     42     22       109.4           109.4           0.000    
    117      4     42     21       109.4           109.3           0.000    
    118      5     42     21       109.4           109.3           0.000    
    119      4     42     20       109.4           109.3           0.000    
    120      5     42     20       109.4           109.3           0.000    
    121      4     42     19       109.4           109.3           0.000    
    122      5     42     19       109.4           109.3           0.000    
    123      4     43     18       109.4           109.3           0.000    
    124      5     43     18       109.4           109.3           0.000    
    125      4     42     18       109.4           109.3           0.000    
    126      5     42     18       109.4           109.3           0.000    
    127      4     42     17       109.4           109.3           0.000    
    128      5     42     17       109.4           109.3           0.000    
    129      4     42     16       109.4           109.3           0.000    
    130      5     42     16       109.4           109.3           0.000    
    131      4     42     15       109.4           109.3           0.000    
    132      5     42     15       109.4           109.3           0.000    
    133      4     43     15       109.4           109.3           0.000    
    134      5     43     15       109.4           109.3           0.000    
    135      4     43     14       109.4           109.3           0.000    
    136      5     43     14       109.4           109.3           0.000    
    137      4     43     13       109.4           109.3           0.000    
    138      5     43     13       109.4           109.3           0.000    
    139      4     43     12       109.4           109.3           0.000    
    140      5     43     12       109.4           109.3           0.000    
    141      4     43     11       109.4           109.3           0.000    
    142      5     43     11       109.4           109.3           0.000    
    143      4     43     10       109.4           109.3           0.000    
    144      5     43     10       109.4           109.3           0.000    
    145      4     44     10       109.4           109.3           0.000    
    146      5     44     10       109.4           109.3           0.000    
    147      4     44      9       109.4           109.3           0.000    
    148      5     44      9       109.4           109.3           0.000    
    149      4     44      8       109.4           109.3           0.000    
    150      5     44      8       109.4           109.3           0.000    
    151      4     44      7       109.4           109.3           0.000    
    152      5     44      7       109.4           109.3           0.000    
    153      4     44      6       109.4           109.3           0.000    
    154      5     44      6       109.4           109.3           0.000    
    155      4     44      5       109.4           109.3           0.000    
    156      5     44      5       109.4           109.3           0.000    
    157      4     44      4       109.4           109.3           0.000    
    158      5     44      4       109.4           109.3           0.000    
    159      4     44      3       109.4           109.3           0.000    
    160      5     44      3       109.4           109.3           0.000    
    161      4     45      3       109.4           109.3           0.000    
    162      5     45      3       109.4           109.3           0.000    
    163      4     45      2       109.4           109.3           0.000    
    164      5     45      2       109.4           109.3           0.000    
    165      4     45      1       109.4           109.3           0.000    
    166      5     45      1       109.4           109.3           0.000    


    166 TIME-VARIANT SPECIFIED-HEAD CELLS

 SOLVING FOR HEAD 


     3 CALLS TO PCG ROUTINE FOR TIME STEP   1 IN STRESS PERIOD   38
    61 TOTAL ITERATIONS

 MAXIMUM HEAD CHANGE FOR EACH ITERATION (1 INDICATES THE FIRST INNER ITERATION):

    HEAD CHANGE    HEAD CHANGE    HEAD CHANGE    HEAD CHANGE    HEAD CHANGE 
   LAYER,ROW,COL  LAYER,ROW,COL  LAYER,ROW,COL  LAYER,ROW,COL  LAYER,ROW,COL
 ---------------------------------------------------------------------------
  1 -0.1446      0  0.8039E-01  0 -0.4711E-01  0  0.3975E-01  0 -0.5534E-01
   (  5, 43,  5)  (  5, 35,  1)  (  5, 30,  2)  (  5, 41,  2)  (  5, 37,  1)
  0 -0.2724E-01  0 -0.3447E-01  0  0.3831E-01  0  0.2144E-01  0  0.1744E-01
   (  5, 39,  1)  (  5, 40,  1)  (  5, 37,  1)  (  5, 37,  6)  (  5, 40,  2)
  0  0.1366E-01  0  0.8506E-02  0 -0.8182E-02  0  0.9143E-02  0 -0.7491E-02
   (  5, 36, 10)  (  5, 28,  2)  (  5, 33,  9)  (  5, 30,  8)  (  5, 36,  8)
  0  0.3406E-02  0  0.4259E-02  0  0.3117E-02  0  0.2478E-02  0  0.2292E-02
   (  5, 35,  4)  (  5, 34,  9)  (  5, 15,  1)  (  5, 30, 10)  (  5, 36,  7)
  0  0.1597E-02  0  0.1625E-02  0 -0.7229E-03  0 -0.1217E-02  0  0.8988E-03
   (  5, 39,  4)  (  5, 32,  4)  (  5, 35,  3)  (  5, 14,  1)  (  5, 13,  1)
  0  0.6367E-03  0 -0.5023E-03  0  0.3861E-03  0 -0.2295E-03  0 -0.2179E-03
   (  5, 37,  1)  (  5, 40,  2)  (  5, 38,  1)  (  5, 35,  1)  (  5, 31,  6)
  1  0.1767E-03  0 -0.1275E-03  0  0.1718E-03  0 -0.1791E-03  0  0.1377E-03
   (  5, 28,  2)  (  5, 31,  2)  (  5, 33,  1)  (  5, 37,  1)  (  5, 39,  2)
  0 -0.1315E-03  0 -0.9296E-04  0  0.8807E-04  0 -0.6976E-04  0  0.5393E-04
   (  5, 41,  2)  (  5, 37,  2)  (  5, 37,  1)  (  5, 39,  1)  (  5, 37,  1)
  0 -0.4827E-04  0  0.3969E-04  0  0.4952E-04  0 -0.3029E-04  0 -0.1671E-04
   (  5, 30,  3)  (  5, 34,  3)  (  5, 41,  2)  (  5, 39,  1)  (  5, 13,  1)
  0 -0.1327E-04  0  0.1378E-04  0  0.1430E-04  0 -0.8829E-05  0 -0.5057E-05
   (  5, 35,  3)  (  5, 15,  1)  (  5, 34,  8)  (  5, 37,  9)  (  5, 29,  3)
  0  0.8103E-05  0 -0.5511E-05  0  0.4142E-05  0 -0.5263E-05  0  0.3341E-05
   (  5, 30,  8)  (  5, 33, 10)  (  5, 35,  1)  (  5, 38,  1)  (  5, 37,  6)
  0 -0.1845E-05  0  0.1518E-05  0  0.1137E-05  0 -0.1080E-05  0  0.9674E-06
   (  5, 42,  1)  (  5, 35,  2)  (  5, 32,  7)  (  5, 33,  3)  (  5, 28,  1)
  1 -0.6742E-06
   (  5, 36,  1)

 MAXIMUM RESIDUAL FOR EACH ITERATION (1 INDICATES THE FIRST INNER ITERATION):

    RESIDUAL       RESIDUAL       RESIDUAL       RESIDUAL       RESIDUAL    
   LAYER,ROW,COL  LAYER,ROW,COL  LAYER,ROW,COL  LAYER,ROW,COL  LAYER,ROW,COL
 ---------------------------------------------------------------------------
  1  0.7122E-03  0  0.5423E-03  0  0.4551E-03  0  0.4071E-03  0  0.3403E-03
   (  4, 44,  2)  (  4, 44,  2)  (  4, 44,  2)  (  4, 35, 35)  (  4, 35, 35)
  0  0.2870E-03  0  0.2425E-03  0  0.1915E-03  0  0.1529E-03  0  0.1173E-03
   (  4, 35, 35)  (  3, 40, 27)  (  3, 40, 27)  (  3, 40, 27)  (  3, 40, 27)
  0 -0.8994E-04  0 -0.7861E-04  0 -0.7105E-04  0 -0.5711E-04  0 -0.4471E-04
   (  3, 35, 35)  (  3, 35, 35)  (  3, 35, 35)  (  3, 35, 35)  (  3, 35, 35)
  0 -0.4072E-04  0 -0.3227E-04  0 -0.2493E-04  0 -0.2056E-04  0 -0.1672E-04
   (  3, 35, 35)  (  4, 43,  4)  (  4, 44,  2)  (  4, 44,  2)  (  4, 34, 35)
  0 -0.1467E-04  0 -0.1313E-04  0 -0.1257E-04  0 -0.9907E-05  0 -0.7822E-05
   (  4, 34, 35)  (  4, 34, 35)  (  4, 34, 35)  (  4, 34, 35)  (  4, 34, 35)
  0 -0.6116E-05  0 -0.5373E-05  0 -0.4293E-05  0 -0.3998E-05  0 -0.3060E-05
   (  4, 34, 35)  (  4, 34, 35)  (  4, 34, 35)  (  4, 34, 35)  (  4, 34, 35)
  1 -0.2953E-05  0 -0.2884E-05  0 -0.2670E-05  0 -0.2356E-05  0 -0.2111E-05
   (  4, 34, 35)  (  4, 34, 35)  (  4, 34, 35)  (  4, 34, 35)  (  4, 34, 35)
  0 -0.1601E-05  0 -0.1408E-05  0 -0.1034E-05  0 -0.7204E-06  0 -0.5644E-06
   (  4, 34, 35)  (  4, 34, 35)  (  4, 34, 35)  (  4, 34, 35)  (  4, 34, 35)
  0  0.4657E-06  0  0.4090E-06  0  0.3236E-06  0  0.2586E-06  0  0.2080E-06
   (  4, 35, 35)  (  4, 35, 35)  (  4, 35, 35)  (  4, 35, 35)  (  4, 35, 35)
  0  0.1928E-06  0  0.1452E-06  0  0.1130E-06  0  0.9066E-07  0  0.8340E-07
   (  4, 35, 35)  (  4, 35, 35)  (  4, 35, 35)  (  4, 35, 35)  (  4, 35, 35)
  0  0.6653E-07  0  0.5020E-07  0  0.4360E-07  0  0.3220E-07  0  0.2284E-07
   (  4, 35, 35)  (  4, 35, 35)  (  4, 35, 35)  (  4, 35, 35)  (  4, 35, 35)
  0  0.1701E-07  0  0.1449E-07  0  0.1214E-07  0  0.9835E-08  0  0.8438E-08
   (  4, 35, 35)  (  4, 35, 35)  (  4, 35, 35)  (  4, 35, 35)  (  4, 35, 35)
  1  0.8360E-08
   (  4, 35, 35)



 OUTPUT CONTROL FOR STRESS PERIOD   38   TIME STEP    1
    SAVE HEAD FOR ALL LAYERS
    SAVE DRAWDOWN FOR ALL LAYERS
    SAVE BUDGET
    PRINT BUDGET
 UBDSV1 SAVING "         STORAGE" ON UNIT   9 AT TIME STEP  1, STRESS PERIOD  38
 UBDSV2 SAVING "   CONSTANT HEAD" ON UNIT   9 AT TIME STEP  1, STRESS PERIOD  38
 UBDSV1 SAVING "FLOW RIGHT FACE " ON UNIT   9 AT TIME STEP  1, STRESS PERIOD  38
 UBDSV1 SAVING "FLOW FRONT FACE " ON UNIT   9 AT TIME STEP  1, STRESS PERIOD  38
 UBDSV1 SAVING "FLOW LOWER FACE " ON UNIT   9 AT TIME STEP  1, STRESS PERIOD  38
 UBDSV3 SAVING "        RECHARGE" ON UNIT   9 AT TIME STEP  1, STRESS PERIOD  38

 HEAD WILL BE SAVED ON UNIT   37 AT END OF TIME STEP    1, STRESS PERIOD   38

 DRAWDOWN WILL BE SAVED ON UNIT   38 AT END OF TIME STEP    1, STRESS PERIOD   38
1
  VOLUMETRIC BUDGET FOR ENTIRE MODEL AT END OF TIME STEP    1, STRESS PERIOD  38
  ------------------------------------------------------------------------------

     CUMULATIVE VOLUMES      L**3       RATES FOR THIS TIME STEP      L**3/T
     ------------------                 ------------------------

           IN:                                      IN:
           ---                                      ---
             STORAGE =        8807.7725               STORAGE =       1.0749E-03
       CONSTANT HEAD =       11893.8496         CONSTANT HEAD =       1.7404E-03
            RECHARGE =         476.4929              RECHARGE =       1.0213E-04

            TOTAL IN =       21178.1133              TOTAL IN =       2.9174E-03

          OUT:                                     OUT:
          ----                                     ----
             STORAGE =        3851.8235               STORAGE =           0.0000
       CONSTANT HEAD =       17326.8535         CONSTANT HEAD =       2.9176E-03
            RECHARGE =           0.0000              RECHARGE =           0.0000

           TOTAL OUT =       21178.6777             TOTAL OUT =       2.9176E-03

            IN - OUT =          -0.5645              IN - OUT =      -2.6054E-07

 PERCENT DISCREPANCY =          -0.00     PERCENT DISCREPANCY =          -0.01






         TIME SUMMARY AT END OF TIME STEP    1 IN STRESS PERIOD   38
                    SECONDS     MINUTES      HOURS       DAYS        YEARS
                    -----------------------------------------------------------
   TIME STEP LENGTH  86400.      1440.0      24.000      1.0000     2.73785E-03
 STRESS PERIOD TIME  86400.      1440.0      24.000      1.0000     2.73785E-03
         TOTAL TIME 4.66560E+06  77760.      1296.0      54.000     0.14784    
1
1
                            STRESS PERIOD NO.   39, LENGTH =   172800.0    
                            -----------------------------------------------

                              NUMBER OF TIME STEPS =     2

                               MULTIPLIER FOR DELT =     1.000

                            INITIAL TIME STEP SIZE =   86400.00    

 REUSING RECH FROM LAST STRESS PERIOD

 CHD NO.   LAYER   ROW   COL    START HEAD        END HEAD         IFACE           
 ----------------------------------------------------------------------------------
      1      4      3      1       109.6           109.5           0.000    
      2      5      3      1       109.6           109.5           0.000    
      3      4      3      2       109.6           109.5           0.000    
      4      5      3      2       109.6           109.5           0.000    
      5      4      3      3       109.6           109.5           0.000    
      6      5      3      3       109.6           109.5           0.000    
      7      4      3      4       109.6           109.5           0.000    
      8      5      3      4       109.6           109.5           0.000    
      9      4      3      5       109.6           109.5           0.000    
     10      5      3      5       109.6           109.5           0.000    
     11      4      3      6       109.6           109.5           0.000    
     12      5      3      6       109.6           109.5           0.000    
     13      4      3      7       109.6           109.5           0.000    
     14      5      3      7       109.6           109.5           0.000    
     15      4      3      8       109.6           109.5           0.000    
     16      5      3      8       109.6           109.5           0.000    
     17      4      2      8       109.6           109.5           0.000    
     18      5      2      8       109.6           109.5           0.000    
     19      4      2      9       109.6           109.5           0.000    
     20      5      2      9       109.6           109.5           0.000    
     21      4      2     10       109.6           109.5           0.000    
     22      5      2     10       109.6           109.5           0.000    
     23      4      2     11       109.6           109.5           0.000    
     24      5      2     11       109.6           109.5           0.000    
     25      4      2     12       109.6           109.5           0.000    
     26      5      2     12       109.6           109.5           0.000    
     27      4      2     13       109.6           109.5           0.000    
     28      5      2     13       109.6           109.5           0.000    
     29      4      2     14       109.6           109.5           0.000    
     30      5      2     14       109.6           109.5           0.000    
     31      4      2     15       109.6           109.5           0.000    
     32      5      2     15       109.6           109.5           0.000    
     33      4      2     16       109.6           109.5           0.000    
     34      5      2     16       109.6           109.5           0.000    
     35      4      2     17       109.6           109.5           0.000    
     36      5      2     17       109.6           109.5           0.000    
     37      4      2     18       109.6           109.5           0.000    
     38      5      2     18       109.6           109.5           0.000    
     39      4      2     19       109.6           109.5           0.000    
     40      5      2     19       109.6           109.5           0.000    
     41      4      2     20       109.6           109.5           0.000    
     42      5      2     20       109.6           109.5           0.000    
     43      4      2     21       109.6           109.5           0.000    
     44      5      2     21       109.6           109.5           0.000    
     45      4      2     22       109.6           109.5           0.000    
     46      5      2     22       109.6           109.5           0.000    
     47      4      2     23       109.6           109.5           0.000    
     48      5      2     23       109.6           109.5           0.000    
     49      4      2     24       109.6           109.5           0.000    
     50      5      2     24       109.6           109.5           0.000    
     51      4      2     25       109.6           109.5           0.000    
     52      5      2     25       109.6           109.5           0.000    
     53      4      2     26       109.6           109.5           0.000    
     54      5      2     26       109.6           109.5           0.000    
     55      4      1     26       109.6           109.5           0.000    
     56      5      1     26       109.6           109.5           0.000    
     57      4      1     27       109.6           109.5           0.000    
     58      5      1     27       109.6           109.5           0.000    
     59      4      1     28       109.6           109.5           0.000    
     60      5      1     28       109.6           109.5           0.000    
     61      4      1     29       109.6           109.5           0.000    
     62      5      1     29       109.6           109.5           0.000    
     63      4      1     30       109.6           109.5           0.000    
     64      5      1     30       109.6           109.5           0.000    
     65      4      1     31       109.6           109.5           0.000    
     66      5      1     31       109.6           109.5           0.000    
     67      4      1     32       109.6           109.5           0.000    
     68      5      1     32       109.6           109.5           0.000    
     69      4      1     33       109.6           109.5           0.000    
     70      5      1     33       109.6           109.5           0.000    
     71      4      1     34       109.6           109.5           0.000    
     72      5      1     34       109.6           109.5           0.000    
     73      4      1     35       109.6           109.5           0.000    
     74      5      1     35       109.6           109.5           0.000    
     75      4     36     35       109.4           109.3           0.000    
     76      5     36     35       109.4           109.3           0.000    
     77      4     35     34       109.4           109.3           0.000    
     78      5     35     34       109.4           109.3           0.000    
     79      4     36     34       109.4           109.3           0.000    
     80      5     36     34       109.4           109.3           0.000    
     81      4     36     33       109.4           109.3           0.000    
     82      5     36     33       109.4           109.3           0.000    
     83      4     36     32       109.4           109.3           0.000    
     84      5     36     32       109.4           109.3           0.000    
     85      4     37     32       109.4           109.3           0.000    
     86      5     37     32       109.4           109.3           0.000    
     87      4     37     31       109.4           109.3           0.000    
     88      5     37     31       109.4           109.3           0.000    
     89      4     38     31       109.4           109.3           0.000    
     90      5     38     31       109.4           109.3           0.000    
     91      4     38     30       109.4           109.2           0.000    
     92      5     38     30       109.4           109.2           0.000    
     93      4     39     30       109.4           109.2           0.000    
     94      5     39     30       109.4           109.2           0.000    
     95      4     39     29       109.4           109.2           0.000    
     96      5     39     29       109.4           109.2           0.000    
     97      4     40     29       109.4           109.2           0.000    
     98      5     40     29       109.4           109.2           0.000    
     99      4     40     28       109.4           109.2           0.000    
    100      5     40     28       109.4           109.2           0.000    
    101      4     40     27       109.4           109.2           0.000    
    102      5     40     27       109.4           109.2           0.000    
    103      4     41     27       109.4           109.2           0.000    
    104      5     41     27       109.4           109.2           0.000    
    105      4     41     26       109.4           109.2           0.000    
    106      5     41     26       109.4           109.2           0.000    
    107      4     41     25       109.4           109.2           0.000    
    108      5     41     25       109.4           109.2           0.000    
    109      4     41     24       109.4           109.2           0.000    
    110      5     41     24       109.4           109.2           0.000    
    111      4     41     23       109.4           109.2           0.000    
    112      5     41     23       109.4           109.2           0.000    
    113      4     41     22       109.4           109.2           0.000    
    114      5     41     22       109.4           109.2           0.000    
    115      4     42     22       109.4           109.2           0.000    
    116      5     42     22       109.4           109.2           0.000    
    117      4     42     21       109.3           109.2           0.000    
    118      5     42     21       109.3           109.2           0.000    
    119      4     42     20       109.3           109.2           0.000    
    120      5     42     20       109.3           109.2           0.000    
    121      4     42     19       109.3           109.2           0.000    
    122      5     42     19       109.3           109.2           0.000    
    123      4     43     18       109.3           109.2           0.000    
    124      5     43     18       109.3           109.2           0.000    
    125      4     42     18       109.3           109.2           0.000    
    126      5     42     18       109.3           109.2           0.000    
    127      4     42     17       109.3           109.2           0.000    
    128      5     42     17       109.3           109.2           0.000    
    129      4     42     16       109.3           109.2           0.000    
    130      5     42     16       109.3           109.2           0.000    
    131      4     42     15       109.3           109.2           0.000    
    132      5     42     15       109.3           109.2           0.000    
    133      4     43     15       109.3           109.2           0.000    
    134      5     43     15       109.3           109.2           0.000    
    135      4     43     14       109.3           109.2           0.000    
    136      5     43     14       109.3           109.2           0.000    
    137      4     43     13       109.3           109.2           0.000    
    138      5     43     13       109.3           109.2           0.000    
    139      4     43     12       109.3           109.2           0.000    
    140      5     43     12       109.3           109.2           0.000    
    141      4     43     11       109.3           109.2           0.000    
    142      5     43     11       109.3           109.2           0.000    
    143      4     43     10       109.3           109.2           0.000    
    144      5     43     10       109.3           109.2           0.000    
    145      4     44     10       109.3           109.2           0.000    
    146      5     44     10       109.3           109.2           0.000    
    147      4     44      9       109.3           109.2           0.000    
    148      5     44      9       109.3           109.2           0.000    
    149      4     44      8       109.3           109.2           0.000    
    150      5     44      8       109.3           109.2           0.000    
    151      4     44      7       109.3           109.2           0.000    
    152      5     44      7       109.3           109.2           0.000    
    153      4     44      6       109.3           109.2           0.000    
    154      5     44      6       109.3           109.2           0.000    
    155      4     44      5       109.3           109.2           0.000    
    156      5     44      5       109.3           109.2           0.000    
    157      4     44      4       109.3           109.2           0.000    
    158      5     44      4       109.3           109.2           0.000    
    159      4     44      3       109.3           109.2           0.000    
    160      5     44      3       109.3           109.2           0.000    
    161      4     45      3       109.3           109.2           0.000    
    162      5     45      3       109.3           109.2           0.000    
    163      4     45      2       109.3           109.2           0.000    
    164      5     45      2       109.3           109.2           0.000    
    165      4     45      1       109.3           109.2           0.000    
    166      5     45      1       109.3           109.2           0.000    


    166 TIME-VARIANT SPECIFIED-HEAD CELLS

 SOLVING FOR HEAD 


     3 CALLS TO PCG ROUTINE FOR TIME STEP   1 IN STRESS PERIOD   39
    61 TOTAL ITERATIONS

 MAXIMUM HEAD CHANGE FOR EACH ITERATION (1 INDICATES THE FIRST INNER ITERATION):

    HEAD CHANGE    HEAD CHANGE    HEAD CHANGE    HEAD CHANGE    HEAD CHANGE 
   LAYER,ROW,COL  LAYER,ROW,COL  LAYER,ROW,COL  LAYER,ROW,COL  LAYER,ROW,COL
 ---------------------------------------------------------------------------
  1 -0.1857      0  0.1007      0 -0.5694E-01  0  0.5042E-01  0 -0.6394E-01
   (  5, 43,  5)  (  5, 35,  1)  (  5, 30,  2)  (  5, 41,  2)  (  5, 37,  1)
  0 -0.3743E-01  0 -0.4226E-01  0  0.4672E-01  0  0.2665E-01  0  0.2078E-01
   (  5, 39,  1)  (  5, 40,  1)  (  5, 37,  1)  (  5, 37,  6)  (  5, 40,  1)
  0  0.1859E-01  0 -0.1885E-01  0  0.6544E-02  0  0.1025E-01  0 -0.8967E-02
   (  5, 35,  9)  (  5, 33,  9)  (  5, 31,  4)  (  5, 30,  9)  (  5, 36,  8)
  0  0.4255E-02  0  0.5222E-02  0  0.3717E-02  0  0.2944E-02  0  0.2890E-02
   (  5, 35,  4)  (  5, 34,  9)  (  5, 15,  1)  (  5, 30, 10)  (  5, 38,  4)
  0 -0.2046E-02  0  0.1696E-02  0 -0.1126E-02  0 -0.1572E-02  0  0.1227E-02
   (  5, 37,  1)  (  5, 35,  1)  (  5, 29,  2)  (  5, 14,  1)  (  5, 13,  1)
  0 -0.7416E-03  0  0.5840E-03  0 -0.5196E-03  0  0.3940E-03  0 -0.3086E-03
   (  5, 13,  1)  (  5, 37,  1)  (  5, 35,  1)  (  5, 35,  3)  (  5, 36,  1)
  1  0.2237E-03  0  0.2945E-03  0 -0.2840E-03  0  0.4255E-03  0  0.4301E-03
   (  5, 28,  2)  (  5, 38,  4)  (  5, 33,  2)  (  5, 32,  3)  (  5, 34,  1)
  0  0.3603E-03  0  0.2134E-03  0  0.1851E-03  0  0.1825E-03  0  0.1026E-03
   (  5, 38,  1)  (  5, 34,  6)  (  5, 35,  3)  (  5, 41,  1)  (  5, 33,  6)
  0  0.8967E-04  0 -0.6070E-04  0  0.8564E-04  0 -0.4953E-04  0  0.4477E-04
   (  5, 28,  3)  (  5, 30,  2)  (  5, 33,  4)  (  5, 30,  9)  (  5, 32,  7)
  0  0.2402E-04  0  0.1787E-04  0  0.1896E-04  0  0.1723E-04  0 -0.1343E-04
   (  5, 39,  1)  (  5, 32,  1)  (  5, 29,  9)  (  5, 34,  3)  (  5, 36,  8)
  0  0.8091E-05  0  0.9593E-05  0 -0.5744E-05  0  0.6620E-05  0 -0.4431E-05
   (  5, 30,  2)  (  5, 37,  7)  (  5, 34,  1)  (  5, 35,  2)  (  5, 14,  2)
  0  0.3643E-05  0 -0.3158E-05  0  0.1583E-05  0 -0.1322E-05  0 -0.7831E-06
   (  5, 13,  2)  (  5, 15,  1)  (  5, 37,  1)  (  5, 38,  2)  (  5, 28,  3)
  1  0.7548E-06
   (  5, 28,  4)

 MAXIMUM RESIDUAL FOR EACH ITERATION (1 INDICATES THE FIRST INNER ITERATION):

    RESIDUAL       RESIDUAL       RESIDUAL       RESIDUAL       RESIDUAL    
   LAYER,ROW,COL  LAYER,ROW,COL  LAYER,ROW,COL  LAYER,ROW,COL  LAYER,ROW,COL
 ---------------------------------------------------------------------------
  1  0.7551E-03  0  0.5593E-03  0  0.5042E-03  0  0.4535E-03  0  0.3794E-03
   (  4, 44,  2)  (  4, 44,  2)  (  4, 35, 35)  (  4, 35, 35)  (  4, 35, 35)
  0  0.3159E-03  0  0.2619E-03  0  0.2048E-03  0  0.1607E-03  0 -0.1345E-03
   (  4, 35, 35)  (  3, 40, 27)  (  3, 40, 27)  (  3, 40, 27)  (  4, 43,  4)
  0 -0.1090E-03  0 -0.8834E-04  0 -0.8411E-04  0 -0.6662E-04  0 -0.5162E-04
   (  4, 43,  4)  (  4, 43,  4)  (  4, 43,  4)  (  4, 43,  4)  (  4, 43,  4)
  0 -0.4821E-04  0 -0.4091E-04  0 -0.3230E-04  0 -0.2607E-04  0 -0.1995E-04
   (  4, 44,  2)  (  4, 44,  2)  (  4, 44,  2)  (  4, 44,  2)  (  4, 44,  2)
  0 -0.1744E-04  0 -0.1423E-04  0 -0.1356E-04  0 -0.1062E-04  0 -0.8316E-05
   (  4, 44,  2)  (  4, 34, 35)  (  4, 34, 35)  (  4, 34, 35)  (  4, 34, 35)
  0 -0.6488E-05  0 -0.5783E-05  0 -0.4881E-05  0 -0.4225E-05  0 -0.2998E-05
   (  4, 34, 35)  (  4, 34, 35)  (  4, 34, 35)  (  4, 34, 35)  (  4, 34, 35)
  1 -0.2957E-05  0 -0.2806E-05  0 -0.2589E-05  0 -0.2206E-05  0 -0.1763E-05
   (  4, 34, 35)  (  4, 34, 35)  (  4, 34, 35)  (  4, 34, 35)  (  4, 34, 35)
  0 -0.1431E-05  0 -0.1076E-05  0 -0.9503E-06  0 -0.9079E-06  0 -0.7628E-06
   (  4, 34, 35)  (  4, 34, 35)  (  4, 43,  1)  (  4, 43,  1)  (  4, 43,  1)
  0 -0.6220E-06  0 -0.5466E-06  0 -0.3751E-06  0  0.3232E-06  0  0.2868E-06
   (  4, 43,  1)  (  4, 43,  1)  (  4, 44,  1)  (  4, 43,  2)  (  4, 43,  2)
  0  0.2267E-06  0  0.2035E-06  0  0.1883E-06  0  0.1596E-06  0  0.1274E-06
   (  4, 43,  2)  (  4, 43,  2)  (  4, 44,  2)  (  4, 44,  2)  (  4, 44,  2)
  0  0.1193E-06  0  0.8553E-07  0  0.7009E-07  0  0.4923E-07  0 -0.3439E-07
   (  4, 44,  2)  (  4, 44,  2)  (  4, 44,  2)  (  4, 44,  2)  (  4, 43,  2)
  0 -0.3130E-07  0 -0.2386E-07  0 -0.2074E-07  0 -0.1754E-07  0 -0.1662E-07
   (  4, 43,  2)  (  4, 43,  2)  (  4, 43,  2)  (  4, 43,  2)  (  4, 43,  2)
  1 -0.1607E-07
   (  4, 43,  2)



 OUTPUT CONTROL FOR STRESS PERIOD   39   TIME STEP    1
    SAVE HEAD FOR ALL LAYERS
    SAVE DRAWDOWN FOR ALL LAYERS
    SAVE BUDGET
    PRINT BUDGET
 UBDSV1 SAVING "         STORAGE" ON UNIT   9 AT TIME STEP  1, STRESS PERIOD  39
 UBDSV2 SAVING "   CONSTANT HEAD" ON UNIT   9 AT TIME STEP  1, STRESS PERIOD  39
 UBDSV1 SAVING "FLOW RIGHT FACE " ON UNIT   9 AT TIME STEP  1, STRESS PERIOD  39
 UBDSV1 SAVING "FLOW FRONT FACE " ON UNIT   9 AT TIME STEP  1, STRESS PERIOD  39
 UBDSV1 SAVING "FLOW LOWER FACE " ON UNIT   9 AT TIME STEP  1, STRESS PERIOD  39
 UBDSV3 SAVING "        RECHARGE" ON UNIT   9 AT TIME STEP  1, STRESS PERIOD  39

 HEAD WILL BE SAVED ON UNIT   37 AT END OF TIME STEP    1, STRESS PERIOD   39

 DRAWDOWN WILL BE SAVED ON UNIT   38 AT END OF TIME STEP    1, STRESS PERIOD   39
1
  VOLUMETRIC BUDGET FOR ENTIRE MODEL AT END OF TIME STEP    1, STRESS PERIOD  39
  ------------------------------------------------------------------------------

     CUMULATIVE VOLUMES      L**3       RATES FOR THIS TIME STEP      L**3/T
     ------------------                 ------------------------

           IN:                                      IN:
           ---                                      ---
             STORAGE =        8956.2842               STORAGE =       1.7189E-03
       CONSTANT HEAD =       12036.2578         CONSTANT HEAD =       1.6482E-03
            RECHARGE =         485.3168              RECHARGE =       1.0213E-04

            TOTAL IN =       21477.8594              TOTAL IN =       3.4693E-03

          OUT:                                     OUT:
          ----                                     ----
             STORAGE =        3851.8235               STORAGE =           0.0000
       CONSTANT HEAD =       17626.6152         CONSTANT HEAD =       3.4695E-03
            RECHARGE =           0.0000              RECHARGE =           0.0000

           TOTAL OUT =       21478.4395             TOTAL OUT =       3.4695E-03

            IN - OUT =          -0.5801              IN - OUT =      -2.0373E-07

 PERCENT DISCREPANCY =          -0.00     PERCENT DISCREPANCY =          -0.01






         TIME SUMMARY AT END OF TIME STEP    1 IN STRESS PERIOD   39
                    SECONDS     MINUTES      HOURS       DAYS        YEARS
                    -----------------------------------------------------------
   TIME STEP LENGTH  86400.      1440.0      24.000      1.0000     2.73785E-03
 STRESS PERIOD TIME  86400.      1440.0      24.000      1.0000     2.73785E-03
         TOTAL TIME 4.75200E+06  79200.      1320.0      55.000     0.15058    
1

 SOLVING FOR HEAD 
     4 CALLS TO PCG ROUTINE FOR TIME STEP   2 IN STRESS PERIOD   39
    67 TOTAL ITERATIONS

 MAXIMUM HEAD CHANGE FOR EACH ITERATION (1 INDICATES THE FIRST INNER ITERATION):

    HEAD CHANGE    HEAD CHANGE    HEAD CHANGE    HEAD CHANGE    HEAD CHANGE 
   LAYER,ROW,COL  LAYER,ROW,COL  LAYER,ROW,COL  LAYER,ROW,COL  LAYER,ROW,COL
 ---------------------------------------------------------------------------
  1 -0.1941      0  0.8121E-01  0  0.4323E-01  0 -0.5025E-01  0 -0.5735E-01
   (  5, 43,  5)  (  5, 39,  1)  (  5, 40,  1)  (  5, 33,  1)  (  5, 37,  1)
  0  0.5392E-01  0 -0.2739E-01  0  0.4074E-01  0 -0.2121E-01  0  0.1676E-01
   (  5, 35,  2)  (  5, 41,  1)  (  5, 38,  1)  (  5, 35,  1)  (  5, 40,  1)
  0 -0.1705E-01  0 -0.1555E-01  0  0.5834E-02  0  0.6704E-02  0 -0.7513E-02
   (  5, 38,  1)  (  5, 33,  9)  (  5, 30,  7)  (  5, 31,  9)  (  5, 35,  8)
  0  0.4434E-02  0  0.3239E-02  0 -0.2708E-02  0 -0.2223E-02  0  0.2605E-02
   (  5, 33,  8)  (  5, 33,  2)  (  5, 33,  4)  (  5, 33,  8)  (  5, 36,  7)
  0 -0.1528E-02  0 -0.1025E-02  0  0.1207E-02  0 -0.7523E-03  0  0.6283E-03
   (  5, 34,  7)  (  5, 29,  3)  (  5, 32,  7)  (  5, 38,  4)  (  5, 37,  1)
  0 -0.5367E-03  0 -0.3843E-03  0 -0.3871E-03  0  0.1814E-03  0  0.1961E-03
   (  5, 34,  1)  (  5, 37,  7)  (  5, 36,  1)  (  5, 36,  3)  (  5, 39,  2)
  1  0.7361E-03  0  0.4082E-03  0  0.7927E-03  0  0.5753E-03  0 -0.3976E-03
   (  5, 32,  3)  (  5, 35,  9)  (  5, 24,  2)  (  5, 29,  1)  (  5, 37,  1)
  0  0.4816E-03  0 -0.2405E-03  0 -0.2115E-03  0  0.1658E-03  0  0.1190E-03
   (  5, 38,  1)  (  5, 34,  1)  (  5, 31,  7)  (  5, 27,  7)  (  5, 41,  1)
  0  0.9182E-04  0  0.8659E-04  0 -0.5580E-04  0  0.4816E-04  0 -0.3403E-04
   (  5, 35,  4)  (  5, 33,  9)  (  5, 40,  1)  (  5, 26, 12)  (  5, 32,  9)
  0  0.2644E-04  0 -0.1564E-04  0  0.1929E-04  0 -0.1281E-04  0  0.1196E-04
   (  5, 23,  1)  (  5, 27,  4)  (  5, 27,  1)  (  5, 31,  4)  (  5, 30,  1)
  0 -0.9325E-05  0  0.6878E-05  0 -0.6965E-05  0  0.3423E-05  0 -0.2282E-05
   (  5, 33,  1)  (  5, 37,  3)  (  5, 13,  1)  (  5, 13,  1)  (  5, 13,  1)
  0 -0.2058E-05  0  0.1433E-05  0 -0.1042E-05  0  0.8542E-06  1  0.1587E-05
   (  5, 37,  2)  (  5, 42,  1)  (  5, 14,  1)  (  5, 31,  2)  (  5, 25,  3)
  0  0.1184E-05  0  0.3630E-05  0  0.1538E-05  0  0.1830E-05  0  0.1077E-05
   (  3, 24,  4)  (  3, 24,  3)  (  3, 24,  3)  (  5, 35,  1)  (  5, 29,  9)
  0  0.7632E-06  1 -0.5677E-06
   (  5, 39,  1)  (  5, 34,  1)

 MAXIMUM RESIDUAL FOR EACH ITERATION (1 INDICATES THE FIRST INNER ITERATION):

    RESIDUAL       RESIDUAL       RESIDUAL       RESIDUAL       RESIDUAL    
   LAYER,ROW,COL  LAYER,ROW,COL  LAYER,ROW,COL  LAYER,ROW,COL  LAYER,ROW,COL
 ---------------------------------------------------------------------------
  1  0.5556E-03  0  0.4950E-03  0  0.4534E-03  0  0.4030E-03  0  0.3254E-03
   (  4, 35, 35)  (  4, 35, 35)  (  4, 35, 35)  (  4, 35, 35)  (  4, 35, 35)
  0  0.2649E-03  0  0.2249E-03  0  0.1762E-03  0 -0.1431E-03  0 -0.1213E-03
   (  3, 40, 27)  (  3, 40, 27)  (  3, 40, 27)  (  4, 43,  4)  (  4, 43,  4)
  0 -0.9425E-04  0 -0.7334E-04  0 -0.6763E-04  0 -0.5549E-04  0 -0.4417E-04
   (  4, 43,  4)  (  4, 43,  4)  (  4, 43,  4)  (  4, 43,  4)  (  4, 44,  2)
  0 -0.3641E-04  0 -0.3284E-04  0 -0.2728E-04  0 -0.2124E-04  0 -0.1535E-04
   (  4, 44,  2)  (  4, 44,  2)  (  4, 44,  2)  (  4, 44,  2)  (  4, 44,  2)
  0 -0.1237E-04  0 -0.1142E-04  0 -0.9534E-05  0 -0.7254E-05  0 -0.6092E-05
   (  4, 34, 35)  (  4, 34, 35)  (  4, 34, 35)  (  4, 34, 35)  (  4, 34, 35)
  0 -0.5200E-05  0 -0.3779E-05  0 -0.2926E-05  0 -0.2534E-05  0 -0.2146E-05
   (  4, 34, 35)  (  4, 34, 35)  (  4, 34, 35)  (  4, 34, 35)  (  4, 34, 35)
  1 -0.2079E-05  0 -0.1908E-05  0 -0.1592E-05  0 -0.1326E-05  0 -0.1325E-05
   (  4, 34, 35)  (  4, 34, 35)  (  4, 34, 35)  (  4, 34, 35)  (  4, 34,  1)
  0 -0.1037E-05  0 -0.9050E-06  0 -0.8176E-06  0 -0.6869E-06  0 -0.6079E-06
   (  4, 37,  1)  (  4, 44,  2)  (  4, 44,  2)  (  4, 44,  2)  (  4, 43,  1)
  0 -0.4857E-06  0 -0.3533E-06  0  0.2615E-06  0  0.2240E-06  0  0.1848E-06
   (  4, 43,  1)  (  4, 43,  1)  (  4, 43,  4)  (  4, 43,  2)  (  4, 43,  2)
  0  0.1481E-06  0  0.1313E-06  0  0.1220E-06  0  0.1018E-06  0  0.8237E-07
   (  4, 43,  2)  (  4, 44,  2)  (  4, 44,  2)  (  4, 44,  2)  (  4, 44,  2)
  0  0.6773E-07  0  0.4655E-07  0  0.2751E-07  0 -0.2147E-07  0 -0.1784E-07
   (  4, 44,  2)  (  4, 44,  2)  (  4, 44,  2)  (  4, 43,  2)  (  4, 43,  2)
  0 -0.1571E-07  0 -0.1233E-07  0 -0.8089E-08  0 -0.4833E-08  1 -0.2639E-07
   (  4, 43,  2)  (  4, 43,  2)  (  4, 43,  2)  (  4, 43,  2)  (  3, 24,  4)
  0 -0.2315E-07  0 -0.1419E-07  0 -0.9398E-08  0 -0.5720E-08  0  0.4726E-08
   (  3, 24,  4)  (  3, 24,  4)  (  3, 24,  4)  (  3, 24,  4)  (  4, 24,  4)
  0  0.3604E-08  1  0.3387E-08
   (  4, 24,  4)  (  4, 24,  4)



 OUTPUT CONTROL FOR STRESS PERIOD   39   TIME STEP    2
    SAVE HEAD FOR ALL LAYERS
    SAVE DRAWDOWN FOR ALL LAYERS
    SAVE BUDGET
    PRINT BUDGET
 UBDSV1 SAVING "         STORAGE" ON UNIT   9 AT TIME STEP  2, STRESS PERIOD  39
 UBDSV2 SAVING "   CONSTANT HEAD" ON UNIT   9 AT TIME STEP  2, STRESS PERIOD  39
 UBDSV1 SAVING "FLOW RIGHT FACE " ON UNIT   9 AT TIME STEP  2, STRESS PERIOD  39
 UBDSV1 SAVING "FLOW FRONT FACE " ON UNIT   9 AT TIME STEP  2, STRESS PERIOD  39
 UBDSV1 SAVING "FLOW LOWER FACE " ON UNIT   9 AT TIME STEP  2, STRESS PERIOD  39
 UBDSV3 SAVING "        RECHARGE" ON UNIT   9 AT TIME STEP  2, STRESS PERIOD  39

 HEAD WILL BE SAVED ON UNIT   37 AT END OF TIME STEP    2, STRESS PERIOD   39

 DRAWDOWN WILL BE SAVED ON UNIT   38 AT END OF TIME STEP    2, STRESS PERIOD   39
1
  VOLUMETRIC BUDGET FOR ENTIRE MODEL AT END OF TIME STEP    2, STRESS PERIOD  39
  ------------------------------------------------------------------------------

     CUMULATIVE VOLUMES      L**3       RATES FOR THIS TIME STEP      L**3/T
     ------------------                 ------------------------

           IN:                                      IN:
           ---                                      ---
             STORAGE =        9125.6641               STORAGE =       1.9604E-03
       CONSTANT HEAD =       12190.2041         CONSTANT HEAD =       1.7818E-03
            RECHARGE =         494.1407              RECHARGE =       1.0213E-04

            TOTAL IN =       21810.0078              TOTAL IN =       3.8443E-03

          OUT:                                     OUT:
          ----                                     ----
             STORAGE =        3851.8235               STORAGE =           0.0000
       CONSTANT HEAD =       17958.7734         CONSTANT HEAD =       3.8444E-03
            RECHARGE =           0.0000              RECHARGE =           0.0000

           TOTAL OUT =       21810.5977             TOTAL OUT =       3.8444E-03

            IN - OUT =          -0.5898              IN - OUT =      -9.6392E-08

 PERCENT DISCREPANCY =          -0.00     PERCENT DISCREPANCY =          -0.00






         TIME SUMMARY AT END OF TIME STEP    2 IN STRESS PERIOD   39
                    SECONDS     MINUTES      HOURS       DAYS        YEARS
                    -----------------------------------------------------------
   TIME STEP LENGTH  86400.      1440.0      24.000      1.0000     2.73785E-03
 STRESS PERIOD TIME 1.72800E+05  2880.0      48.000      2.0000     5.47570E-03
         TOTAL TIME 4.83840E+06  80640.      1344.0      56.000     0.15332    
1
1
                            STRESS PERIOD NO.   40, LENGTH =   86400.00    
                            -----------------------------------------------

                              NUMBER OF TIME STEPS =     1

                               MULTIPLIER FOR DELT =     1.000

                            INITIAL TIME STEP SIZE =   86400.00    

 REUSING RECH FROM LAST STRESS PERIOD

 CHD NO.   LAYER   ROW   COL    START HEAD        END HEAD         IFACE           
 ----------------------------------------------------------------------------------
      1      4      3      1       109.5           109.5           0.000    
      2      5      3      1       109.5           109.5           0.000    
      3      4      3      2       109.5           109.5           0.000    
      4      5      3      2       109.5           109.5           0.000    
      5      4      3      3       109.5           109.5           0.000    
      6      5      3      3       109.5           109.5           0.000    
      7      4      3      4       109.5           109.5           0.000    
      8      5      3      4       109.5           109.5           0.000    
      9      4      3      5       109.5           109.5           0.000    
     10      5      3      5       109.5           109.5           0.000    
     11      4      3      6       109.5           109.5           0.000    
     12      5      3      6       109.5           109.5           0.000    
     13      4      3      7       109.5           109.5           0.000    
     14      5      3      7       109.5           109.5           0.000    
     15      4      3      8       109.5           109.5           0.000    
     16      5      3      8       109.5           109.5           0.000    
     17      4      2      8       109.5           109.5           0.000    
     18      5      2      8       109.5           109.5           0.000    
     19      4      2      9       109.5           109.5           0.000    
     20      5      2      9       109.5           109.5           0.000    
     21      4      2     10       109.5           109.5           0.000    
     22      5      2     10       109.5           109.5           0.000    
     23      4      2     11       109.5           109.5           0.000    
     24      5      2     11       109.5           109.5           0.000    
     25      4      2     12       109.5           109.5           0.000    
     26      5      2     12       109.5           109.5           0.000    
     27      4      2     13       109.5           109.5           0.000    
     28      5      2     13       109.5           109.5           0.000    
     29      4      2     14       109.5           109.5           0.000    
     30      5      2     14       109.5           109.5           0.000    
     31      4      2     15       109.5           109.5           0.000    
     32      5      2     15       109.5           109.5           0.000    
     33      4      2     16       109.5           109.5           0.000    
     34      5      2     16       109.5           109.5           0.000    
     35      4      2     17       109.5           109.5           0.000    
     36      5      2     17       109.5           109.5           0.000    
     37      4      2     18       109.5           109.5           0.000    
     38      5      2     18       109.5           109.5           0.000    
     39      4      2     19       109.5           109.5           0.000    
     40      5      2     19       109.5           109.5           0.000    
     41      4      2     20       109.5           109.5           0.000    
     42      5      2     20       109.5           109.5           0.000    
     43      4      2     21       109.5           109.5           0.000    
     44      5      2     21       109.5           109.5           0.000    
     45      4      2     22       109.5           109.5           0.000    
     46      5      2     22       109.5           109.5           0.000    
     47      4      2     23       109.5           109.5           0.000    
     48      5      2     23       109.5           109.5           0.000    
     49      4      2     24       109.5           109.5           0.000    
     50      5      2     24       109.5           109.5           0.000    
     51      4      2     25       109.5           109.5           0.000    
     52      5      2     25       109.5           109.5           0.000    
     53      4      2     26       109.5           109.5           0.000    
     54      5      2     26       109.5           109.5           0.000    
     55      4      1     26       109.5           109.5           0.000    
     56      5      1     26       109.5           109.5           0.000    
     57      4      1     27       109.5           109.5           0.000    
     58      5      1     27       109.5           109.5           0.000    
     59      4      1     28       109.5           109.5           0.000    
     60      5      1     28       109.5           109.5           0.000    
     61      4      1     29       109.5           109.5           0.000    
     62      5      1     29       109.5           109.5           0.000    
     63      4      1     30       109.5           109.5           0.000    
     64      5      1     30       109.5           109.5           0.000    
     65      4      1     31       109.5           109.5           0.000    
     66      5      1     31       109.5           109.5           0.000    
     67      4      1     32       109.5           109.5           0.000    
     68      5      1     32       109.5           109.5           0.000    
     69      4      1     33       109.5           109.5           0.000    
     70      5      1     33       109.5           109.5           0.000    
     71      4      1     34       109.5           109.5           0.000    
     72      5      1     34       109.5           109.5           0.000    
     73      4      1     35       109.5           109.5           0.000    
     74      5      1     35       109.5           109.5           0.000    
     75      4     36     35       109.3           109.3           0.000    
     76      5     36     35       109.3           109.3           0.000    
     77      4     35     34       109.3           109.3           0.000    
     78      5     35     34       109.3           109.3           0.000    
     79      4     36     34       109.3           109.3           0.000    
     80      5     36     34       109.3           109.3           0.000    
     81      4     36     33       109.3           109.3           0.000    
     82      5     36     33       109.3           109.3           0.000    
     83      4     36     32       109.3           109.3           0.000    
     84      5     36     32       109.3           109.3           0.000    
     85      4     37     32       109.3           109.3           0.000    
     86      5     37     32       109.3           109.3           0.000    
     87      4     37     31       109.3           109.3           0.000    
     88      5     37     31       109.3           109.3           0.000    
     89      4     38     31       109.3           109.3           0.000    
     90      5     38     31       109.3           109.3           0.000    
     91      4     38     30       109.2           109.3           0.000    
     92      5     38     30       109.2           109.3           0.000    
     93      4     39     30       109.2           109.3           0.000    
     94      5     39     30       109.2           109.3           0.000    
     95      4     39     29       109.2           109.3           0.000    
     96      5     39     29       109.2           109.3           0.000    
     97      4     40     29       109.2           109.3           0.000    
     98      5     40     29       109.2           109.3           0.000    
     99      4     40     28       109.2           109.3           0.000    
    100      5     40     28       109.2           109.3           0.000    
    101      4     40     27       109.2           109.3           0.000    
    102      5     40     27       109.2           109.3           0.000    
    103      4     41     27       109.2           109.3           0.000    
    104      5     41     27       109.2           109.3           0.000    
    105      4     41     26       109.2           109.3           0.000    
    106      5     41     26       109.2           109.3           0.000    
    107      4     41     25       109.2           109.3           0.000    
    108      5     41     25       109.2           109.3           0.000    
    109      4     41     24       109.2           109.3           0.000    
    110      5     41     24       109.2           109.3           0.000    
    111      4     41     23       109.2           109.3           0.000    
    112      5     41     23       109.2           109.3           0.000    
    113      4     41     22       109.2           109.3           0.000    
    114      5     41     22       109.2           109.3           0.000    
    115      4     42     22       109.2           109.3           0.000    
    116      5     42     22       109.2           109.3           0.000    
    117      4     42     21       109.2           109.3           0.000    
    118      5     42     21       109.2           109.3           0.000    
    119      4     42     20       109.2           109.2           0.000    
    120      5     42     20       109.2           109.2           0.000    
    121      4     42     19       109.2           109.2           0.000    
    122      5     42     19       109.2           109.2           0.000    
    123      4     43     18       109.2           109.2           0.000    
    124      5     43     18       109.2           109.2           0.000    
    125      4     42     18       109.2           109.2           0.000    
    126      5     42     18       109.2           109.2           0.000    
    127      4     42     17       109.2           109.2           0.000    
    128      5     42     17       109.2           109.2           0.000    
    129      4     42     16       109.2           109.2           0.000    
    130      5     42     16       109.2           109.2           0.000    
    131      4     42     15       109.2           109.2           0.000    
    132      5     42     15       109.2           109.2           0.000    
    133      4     43     15       109.2           109.2           0.000    
    134      5     43     15       109.2           109.2           0.000    
    135      4     43     14       109.2           109.2           0.000    
    136      5     43     14       109.2           109.2           0.000    
    137      4     43     13       109.2           109.2           0.000    
    138      5     43     13       109.2           109.2           0.000    
    139      4     43     12       109.2           109.2           0.000    
    140      5     43     12       109.2           109.2           0.000    
    141      4     43     11       109.2           109.2           0.000    
    142      5     43     11       109.2           109.2           0.000    
    143      4     43     10       109.2           109.2           0.000    
    144      5     43     10       109.2           109.2           0.000    
    145      4     44     10       109.2           109.2           0.000    
    146      5     44     10       109.2           109.2           0.000    
    147      4     44      9       109.2           109.2           0.000    
    148      5     44      9       109.2           109.2           0.000    
    149      4     44      8       109.2           109.2           0.000    
    150      5     44      8       109.2           109.2           0.000    
    151      4     44      7       109.2           109.2           0.000    
    152      5     44      7       109.2           109.2           0.000    
    153      4     44      6       109.2           109.2           0.000    
    154      5     44      6       109.2           109.2           0.000    
    155      4     44      5       109.2           109.2           0.000    
    156      5     44      5       109.2           109.2           0.000    
    157      4     44      4       109.2           109.2           0.000    
    158      5     44      4       109.2           109.2           0.000    
    159      4     44      3       109.2           109.2           0.000    
    160      5     44      3       109.2           109.2           0.000    
    161      4     45      3       109.2           109.2           0.000    
    162      5     45      3       109.2           109.2           0.000    
    163      4     45      2       109.2           109.2           0.000    
    164      5     45      2       109.2           109.2           0.000    
    165      4     45      1       109.2           109.2           0.000    
    166      5     45      1       109.2           109.2           0.000    


    166 TIME-VARIANT SPECIFIED-HEAD CELLS

 SOLVING FOR HEAD 


     3 CALLS TO PCG ROUTINE FOR TIME STEP   1 IN STRESS PERIOD   40
    52 TOTAL ITERATIONS

 MAXIMUM HEAD CHANGE FOR EACH ITERATION (1 INDICATES THE FIRST INNER ITERATION):

    HEAD CHANGE    HEAD CHANGE    HEAD CHANGE    HEAD CHANGE    HEAD CHANGE 
   LAYER,ROW,COL  LAYER,ROW,COL  LAYER,ROW,COL  LAYER,ROW,COL  LAYER,ROW,COL
 ---------------------------------------------------------------------------
  1  0.3041E-01  0  0.1876E-01  0 -0.1804E-01  0 -0.1731E-01  0  0.1597E-01
   (  5, 43,  5)  (  5, 31,  1)  (  5, 41,  1)  (  5, 32,  1)  (  5, 39,  1)
  0 -0.1119E-01  0 -0.1065E-01  0  0.7409E-02  0 -0.4502E-02  0 -0.3004E-02
   (  5, 36,  1)  (  5, 38,  1)  (  5, 36,  1)  (  5, 27,  6)  (  5, 32,  6)
  0 -0.3373E-02  0 -0.1884E-02  0 -0.1508E-02  0 -0.1229E-02  0  0.8911E-03
   (  5, 28, 11)  (  5, 18,  6)  (  5, 35,  5)  (  5, 24, 10)  (  5, 40,  1)
  0 -0.7970E-03  0  0.4334E-03  0  0.4025E-03  0 -0.3640E-03  0  0.2130E-03
   (  5, 39,  1)  (  5, 24,  2)  (  5, 41,  1)  (  5, 31, 10)  (  5, 37,  3)
  0 -0.2286E-03  0 -0.1888E-03  0  0.1287E-03  0 -0.1187E-03  0 -0.7674E-04
   (  5, 33,  1)  (  5, 12,  1)  (  5, 12,  1)  (  5, 13,  2)  (  5, 38,  2)
  0  0.6966E-04  0 -0.5835E-04  0  0.4671E-04  0 -0.2804E-04  0 -0.1987E-04
   (  5, 13,  2)  (  5, 13,  1)  (  5, 13,  1)  (  5, 14,  1)  (  5, 40,  2)
  1  0.7839E-04  0  0.6908E-04  0  0.1093E-03  0 -0.6283E-04  0  0.7140E-04
   (  5, 25,  4)  (  3, 24,  5)  (  5, 29,  1)  (  5, 32,  1)  (  5, 35,  1)
  0 -0.5353E-04  0  0.3673E-04  0 -0.1969E-04  0  0.1413E-04  0  0.1297E-04
   (  5, 37,  1)  (  5, 37,  1)  (  5, 24,  8)  (  5, 23,  6)  (  5, 40,  1)
  0 -0.9317E-05  0  0.6588E-05  0 -0.6030E-05  0  0.4741E-05  0  0.3425E-05
   (  5, 39,  2)  (  5, 38,  1)  (  5, 24, 11)  (  5, 27,  5)  (  5, 30,  2)
  0 -0.3153E-05  0  0.2366E-05  0  0.2096E-05  0  0.1452E-05  0 -0.1198E-05
   (  5, 41,  1)  (  5, 25,  1)  (  5, 40,  1)  (  5, 13,  1)  (  5, 13,  1)
  0  0.7057E-06  1  0.5588E-06
   (  5, 23,  1)  (  5, 34,  1)

 MAXIMUM RESIDUAL FOR EACH ITERATION (1 INDICATES THE FIRST INNER ITERATION):

    RESIDUAL       RESIDUAL       RESIDUAL       RESIDUAL       RESIDUAL    
   LAYER,ROW,COL  LAYER,ROW,COL  LAYER,ROW,COL  LAYER,ROW,COL  LAYER,ROW,COL
 ---------------------------------------------------------------------------
  1  0.1335E-03  0  0.1151E-03  0  0.8924E-04  0  0.6736E-04  0  0.5547E-04
   (  3,  3,  1)  (  3,  3,  1)  (  3,  3,  1)  (  3,  3,  1)  (  3,  3,  1)
  0  0.5095E-04  0  0.4492E-04  0  0.3746E-04  0  0.3064E-04  0  0.2467E-04
   (  4, 43,  6)  (  4, 43,  6)  (  4, 43,  5)  (  4, 43,  4)  (  4, 44,  2)
  0  0.2094E-04  0  0.1686E-04  0  0.1266E-04  0  0.9503E-05  0  0.6781E-05
   (  4, 44,  2)  (  4, 44,  2)  (  4, 44,  2)  (  4, 44,  2)  (  4, 44,  2)
  0  0.5000E-05  0  0.4254E-05  0  0.3162E-05  0  0.2422E-05  0  0.1905E-05
   (  4, 44,  2)  (  4, 44,  2)  (  4, 34, 35)  (  4, 34, 35)  (  4, 34, 35)
  0  0.1709E-05  0  0.1358E-05  0  0.9594E-06  0  0.7113E-06  0  0.5901E-06
   (  4, 34, 35)  (  4, 34, 35)  (  4, 34, 35)  (  4, 34, 35)  (  4, 34, 35)
  0  0.4425E-06  0  0.3024E-06  0 -0.2069E-06  0 -0.1596E-06  0 -0.1155E-06
   (  4, 34, 35)  (  4, 34, 35)  (  3,  3,  2)  (  3,  3,  2)  (  3,  3,  2)
  1 -0.4054E-06  0 -0.3639E-06  0 -0.2893E-06  0 -0.2449E-06  0 -0.1859E-06
   (  3, 24,  1)  (  3, 24,  1)  (  3, 24,  1)  (  3, 24,  1)  (  3, 24,  1)
  0 -0.1452E-06  0 -0.1122E-06  0 -0.8701E-07  0 -0.6825E-07  0 -0.4981E-07
   (  3, 24,  1)  (  3, 24,  1)  (  3, 24,  1)  (  3, 24,  1)  (  3, 24,  1)
  0 -0.4340E-07  0 -0.4629E-07  0 -0.3551E-07  0 -0.2103E-07  0 -0.1505E-07
   (  4, 23,  2)  (  4, 23,  2)  (  4, 23,  2)  (  4, 23,  2)  (  4, 23,  2)
  0 -0.1002E-07  0 -0.9340E-08  0  0.6756E-08  0  0.6126E-08  0  0.4287E-08
   (  4, 23,  2)  (  4, 23,  2)  (  4, 44,  2)  (  4, 21,  1)  (  4, 21,  1)
  0  0.3263E-08  1  0.3232E-08
   (  4, 21,  1)  (  4, 21,  1)



 OUTPUT CONTROL FOR STRESS PERIOD   40   TIME STEP    1
    SAVE HEAD FOR ALL LAYERS
    SAVE DRAWDOWN FOR ALL LAYERS
    SAVE BUDGET
    PRINT BUDGET
 UBDSV1 SAVING "         STORAGE" ON UNIT   9 AT TIME STEP  1, STRESS PERIOD  40
 UBDSV2 SAVING "   CONSTANT HEAD" ON UNIT   9 AT TIME STEP  1, STRESS PERIOD  40
 UBDSV1 SAVING "FLOW RIGHT FACE " ON UNIT   9 AT TIME STEP  1, STRESS PERIOD  40
 UBDSV1 SAVING "FLOW FRONT FACE " ON UNIT   9 AT TIME STEP  1, STRESS PERIOD  40
 UBDSV1 SAVING "FLOW LOWER FACE " ON UNIT   9 AT TIME STEP  1, STRESS PERIOD  40
 UBDSV3 SAVING "        RECHARGE" ON UNIT   9 AT TIME STEP  1, STRESS PERIOD  40

 HEAD WILL BE SAVED ON UNIT   37 AT END OF TIME STEP    1, STRESS PERIOD   40

 DRAWDOWN WILL BE SAVED ON UNIT   38 AT END OF TIME STEP    1, STRESS PERIOD   40
1
  VOLUMETRIC BUDGET FOR ENTIRE MODEL AT END OF TIME STEP    1, STRESS PERIOD  40
  ------------------------------------------------------------------------------

     CUMULATIVE VOLUMES      L**3       RATES FOR THIS TIME STEP      L**3/T
     ------------------                 ------------------------

           IN:                                      IN:
           ---                                      ---
             STORAGE =        9176.1045               STORAGE =       5.8380E-04
       CONSTANT HEAD =       12360.2705         CONSTANT HEAD =       1.9684E-03
            RECHARGE =         502.9647              RECHARGE =       1.0213E-04

            TOTAL IN =       22039.3398              TOTAL IN =       2.6543E-03

          OUT:                                     OUT:
          ----                                     ----
             STORAGE =        3853.6836               STORAGE =       2.1529E-05
       CONSTANT HEAD =       18186.2520         CONSTANT HEAD =       2.6328E-03
            RECHARGE =           0.0000              RECHARGE =           0.0000

           TOTAL OUT =       22039.9355             TOTAL OUT =       2.6544E-03

            IN - OUT =          -0.5957              IN - OUT =      -9.2201E-08

 PERCENT DISCREPANCY =          -0.00     PERCENT DISCREPANCY =          -0.00






         TIME SUMMARY AT END OF TIME STEP    1 IN STRESS PERIOD   40
                    SECONDS     MINUTES      HOURS       DAYS        YEARS
                    -----------------------------------------------------------
   TIME STEP LENGTH  86400.      1440.0      24.000      1.0000     2.73785E-03
 STRESS PERIOD TIME  86400.      1440.0      24.000      1.0000     2.73785E-03
         TOTAL TIME 4.92480E+06  82080.      1368.0      57.000     0.15606    
1
1
                            STRESS PERIOD NO.   41, LENGTH =   86400.00    
                            -----------------------------------------------

                              NUMBER OF TIME STEPS =     1

                               MULTIPLIER FOR DELT =     1.000

                            INITIAL TIME STEP SIZE =   86400.00    

 REUSING RECH FROM LAST STRESS PERIOD

 CHD NO.   LAYER   ROW   COL    START HEAD        END HEAD         IFACE           
 ----------------------------------------------------------------------------------
      1      4      3      1       109.5           109.5           0.000    
      2      5      3      1       109.5           109.5           0.000    
      3      4      3      2       109.5           109.5           0.000    
      4      5      3      2       109.5           109.5           0.000    
      5      4      3      3       109.5           109.5           0.000    
      6      5      3      3       109.5           109.5           0.000    
      7      4      3      4       109.5           109.5           0.000    
      8      5      3      4       109.5           109.5           0.000    
      9      4      3      5       109.5           109.5           0.000    
     10      5      3      5       109.5           109.5           0.000    
     11      4      3      6       109.5           109.5           0.000    
     12      5      3      6       109.5           109.5           0.000    
     13      4      3      7       109.5           109.5           0.000    
     14      5      3      7       109.5           109.5           0.000    
     15      4      3      8       109.5           109.5           0.000    
     16      5      3      8       109.5           109.5           0.000    
     17      4      2      8       109.5           109.5           0.000    
     18      5      2      8       109.5           109.5           0.000    
     19      4      2      9       109.5           109.5           0.000    
     20      5      2      9       109.5           109.5           0.000    
     21      4      2     10       109.5           109.5           0.000    
     22      5      2     10       109.5           109.5           0.000    
     23      4      2     11       109.5           109.5           0.000    
     24      5      2     11       109.5           109.5           0.000    
     25      4      2     12       109.5           109.5           0.000    
     26      5      2     12       109.5           109.5           0.000    
     27      4      2     13       109.5           109.5           0.000    
     28      5      2     13       109.5           109.5           0.000    
     29      4      2     14       109.5           109.5           0.000    
     30      5      2     14       109.5           109.5           0.000    
     31      4      2     15       109.5           109.5           0.000    
     32      5      2     15       109.5           109.5           0.000    
     33      4      2     16       109.5           109.5           0.000    
     34      5      2     16       109.5           109.5           0.000    
     35      4      2     17       109.5           109.5           0.000    
     36      5      2     17       109.5           109.5           0.000    
     37      4      2     18       109.5           109.5           0.000    
     38      5      2     18       109.5           109.5           0.000    
     39      4      2     19       109.5           109.5           0.000    
     40      5      2     19       109.5           109.5           0.000    
     41      4      2     20       109.5           109.5           0.000    
     42      5      2     20       109.5           109.5           0.000    
     43      4      2     21       109.5           109.5           0.000    
     44      5      2     21       109.5           109.5           0.000    
     45      4      2     22       109.5           109.5           0.000    
     46      5      2     22       109.5           109.5           0.000    
     47      4      2     23       109.5           109.5           0.000    
     48      5      2     23       109.5           109.5           0.000    
     49      4      2     24       109.5           109.5           0.000    
     50      5      2     24       109.5           109.5           0.000    
     51      4      2     25       109.5           109.5           0.000    
     52      5      2     25       109.5           109.5           0.000    
     53      4      2     26       109.5           109.5           0.000    
     54      5      2     26       109.5           109.5           0.000    
     55      4      1     26       109.5           109.5           0.000    
     56      5      1     26       109.5           109.5           0.000    
     57      4      1     27       109.5           109.5           0.000    
     58      5      1     27       109.5           109.5           0.000    
     59      4      1     28       109.5           109.5           0.000    
     60      5      1     28       109.5           109.5           0.000    
     61      4      1     29       109.5           109.5           0.000    
     62      5      1     29       109.5           109.5           0.000    
     63      4      1     30       109.5           109.5           0.000    
     64      5      1     30       109.5           109.5           0.000    
     65      4      1     31       109.5           109.5           0.000    
     66      5      1     31       109.5           109.5           0.000    
     67      4      1     32       109.5           109.5           0.000    
     68      5      1     32       109.5           109.5           0.000    
     69      4      1     33       109.5           109.5           0.000    
     70      5      1     33       109.5           109.5           0.000    
     71      4      1     34       109.5           109.5           0.000    
     72      5      1     34       109.5           109.5           0.000    
     73      4      1     35       109.5           109.5           0.000    
     74      5      1     35       109.5           109.5           0.000    
     75      4     36     35       109.3           109.4           0.000    
     76      5     36     35       109.3           109.4           0.000    
     77      4     35     34       109.3           109.4           0.000    
     78      5     35     34       109.3           109.4           0.000    
     79      4     36     34       109.3           109.4           0.000    
     80      5     36     34       109.3           109.4           0.000    
     81      4     36     33       109.3           109.4           0.000    
     82      5     36     33       109.3           109.4           0.000    
     83      4     36     32       109.3           109.4           0.000    
     84      5     36     32       109.3           109.4           0.000    
     85      4     37     32       109.3           109.4           0.000    
     86      5     37     32       109.3           109.4           0.000    
     87      4     37     31       109.3           109.4           0.000    
     88      5     37     31       109.3           109.4           0.000    
     89      4     38     31       109.3           109.4           0.000    
     90      5     38     31       109.3           109.4           0.000    
     91      4     38     30       109.3           109.4           0.000    
     92      5     38     30       109.3           109.4           0.000    
     93      4     39     30       109.3           109.4           0.000    
     94      5     39     30       109.3           109.4           0.000    
     95      4     39     29       109.3           109.4           0.000    
     96      5     39     29       109.3           109.4           0.000    
     97      4     40     29       109.3           109.4           0.000    
     98      5     40     29       109.3           109.4           0.000    
     99      4     40     28       109.3           109.4           0.000    
    100      5     40     28       109.3           109.4           0.000    
    101      4     40     27       109.3           109.4           0.000    
    102      5     40     27       109.3           109.4           0.000    
    103      4     41     27       109.3           109.4           0.000    
    104      5     41     27       109.3           109.4           0.000    
    105      4     41     26       109.3           109.4           0.000    
    106      5     41     26       109.3           109.4           0.000    
    107      4     41     25       109.3           109.4           0.000    
    108      5     41     25       109.3           109.4           0.000    
    109      4     41     24       109.3           109.4           0.000    
    110      5     41     24       109.3           109.4           0.000    
    111      4     41     23       109.3           109.4           0.000    
    112      5     41     23       109.3           109.4           0.000    
    113      4     41     22       109.3           109.4           0.000    
    114      5     41     22       109.3           109.4           0.000    
    115      4     42     22       109.3           109.4           0.000    
    116      5     42     22       109.3           109.4           0.000    
    117      4     42     21       109.3           109.4           0.000    
    118      5     42     21       109.3           109.4           0.000    
    119      4     42     20       109.2           109.4           0.000    
    120      5     42     20       109.2           109.4           0.000    
    121      4     42     19       109.2           109.4           0.000    
    122      5     42     19       109.2           109.4           0.000    
    123      4     43     18       109.2           109.4           0.000    
    124      5     43     18       109.2           109.4           0.000    
    125      4     42     18       109.2           109.4           0.000    
    126      5     42     18       109.2           109.4           0.000    
    127      4     42     17       109.2           109.4           0.000    
    128      5     42     17       109.2           109.4           0.000    
    129      4     42     16       109.2           109.4           0.000    
    130      5     42     16       109.2           109.4           0.000    
    131      4     42     15       109.2           109.4           0.000    
    132      5     42     15       109.2           109.4           0.000    
    133      4     43     15       109.2           109.4           0.000    
    134      5     43     15       109.2           109.4           0.000    
    135      4     43     14       109.2           109.4           0.000    
    136      5     43     14       109.2           109.4           0.000    
    137      4     43     13       109.2           109.4           0.000    
    138      5     43     13       109.2           109.4           0.000    
    139      4     43     12       109.2           109.4           0.000    
    140      5     43     12       109.2           109.4           0.000    
    141      4     43     11       109.2           109.4           0.000    
    142      5     43     11       109.2           109.4           0.000    
    143      4     43     10       109.2           109.4           0.000    
    144      5     43     10       109.2           109.4           0.000    
    145      4     44     10       109.2           109.4           0.000    
    146      5     44     10       109.2           109.4           0.000    
    147      4     44      9       109.2           109.4           0.000    
    148      5     44      9       109.2           109.4           0.000    
    149      4     44      8       109.2           109.4           0.000    
    150      5     44      8       109.2           109.4           0.000    
    151      4     44      7       109.2           109.4           0.000    
    152      5     44      7       109.2           109.4           0.000    
    153      4     44      6       109.2           109.4           0.000    
    154      5     44      6       109.2           109.4           0.000    
    155      4     44      5       109.2           109.4           0.000    
    156      5     44      5       109.2           109.4           0.000    
    157      4     44      4       109.2           109.4           0.000    
    158      5     44      4       109.2           109.4           0.000    
    159      4     44      3       109.2           109.4           0.000    
    160      5     44      3       109.2           109.4           0.000    
    161      4     45      3       109.2           109.4           0.000    
    162      5     45      3       109.2           109.4           0.000    
    163      4     45      2       109.2           109.4           0.000    
    164      5     45      2       109.2           109.4           0.000    
    165      4     45      1       109.2           109.4           0.000    
    166      5     45      1       109.2           109.4           0.000    


    166 TIME-VARIANT SPECIFIED-HEAD CELLS

 SOLVING FOR HEAD 


     4 CALLS TO PCG ROUTINE FOR TIME STEP   1 IN STRESS PERIOD   41
    77 TOTAL ITERATIONS

 MAXIMUM HEAD CHANGE FOR EACH ITERATION (1 INDICATES THE FIRST INNER ITERATION):

    HEAD CHANGE    HEAD CHANGE    HEAD CHANGE    HEAD CHANGE    HEAD CHANGE 
   LAYER,ROW,COL  LAYER,ROW,COL  LAYER,ROW,COL  LAYER,ROW,COL  LAYER,ROW,COL
 ---------------------------------------------------------------------------
  1  0.4924      0 -0.2115      0 -0.1794      0  0.2274      0 -0.1632    
   (  5, 43,  5)  (  5, 39,  1)  (  5, 41,  1)  (  5, 38,  1)  (  5, 34,  1)
  0  0.1015      0  0.6558E-01  0 -0.4690E-01  0  0.4519E-01  0 -0.3784E-01
   (  5, 32,  2)  (  5, 41,  6)  (  5, 39,  1)  (  5, 37,  1)  (  5, 40,  5)
  0  0.2594E-01  0 -0.1747E-01  0 -0.1455E-01  0  0.1203E-01  0  0.6879E-02
   (  5, 39,  1)  (  5, 42,  1)  (  5, 36,  5)  (  5, 37,  8)  (  5, 30,  9)
  0 -0.6705E-02  0  0.5676E-02  0  0.3122E-02  0 -0.2989E-02  0  0.2513E-02
   (  5, 28,  9)  (  5, 33,  8)  (  5, 36,  3)  (  5, 32,  3)  (  5, 13,  1)
  0 -0.2399E-02  0 -0.1337E-02  0  0.1244E-02  0 -0.7138E-03  0  0.5228E-03
   (  5, 13,  1)  (  5, 37,  1)  (  5, 35,  1)  (  5, 15,  1)  (  5, 14,  1)
  0  0.4153E-03  0 -0.2976E-03  0  0.3018E-03  0  0.2494E-03  0 -0.1515E-03
   (  5, 41,  2)  (  5, 35,  1)  (  5, 38,  1)  (  5, 34,  6)  (  5, 33,  6)
  1  0.1239E-02  0  0.1980E-02  0  0.2284E-02  0  0.3167E-02  0  0.2720E-02
   (  5, 30,  3)  (  5, 29,  9)  (  5, 32,  3)  (  5, 26,  2)  (  5, 35,  1)
  0  0.1812E-02  0  0.2059E-02  0  0.1208E-02  0  0.1040E-02  0 -0.6959E-03
   (  5, 32,  7)  (  5, 38,  1)  (  5, 37,  6)  (  5, 34, 12)  (  5, 31, 10)
  0  0.5516E-03  0 -0.3676E-03  0  0.5509E-03  0  0.3981E-03  0 -0.2335E-03
   (  5, 39,  8)  (  5, 30,  1)  (  5, 30, 10)  (  5, 33,  9)  (  5, 39,  7)
  0  0.1714E-03  0  0.2030E-03  0  0.1615E-03  0  0.8322E-04  0 -0.8023E-04
   (  5, 33,  1)  (  5, 15,  1)  (  5, 23, 10)  (  5, 38, 11)  (  5, 35,  7)
  0  0.6626E-04  0 -0.6413E-04  0  0.7242E-04  0 -0.5137E-04  0  0.3649E-04
   (  5, 28,  1)  (  5, 37,  3)  (  5, 39,  1)  (  5, 40,  1)  (  5, 41,  1)
  0 -0.2940E-04  0  0.1685E-04  0 -0.1925E-04  0  0.1521E-04  0  0.1207E-04
   (  5, 14,  2)  (  5, 33,  1)  (  5, 40,  6)  (  5, 39,  2)  (  5, 33,  4)
  1 -0.5808E-05  0  0.1207E-04  0 -0.8527E-05  0  0.6269E-05  0  0.1156E-04
   (  5, 31,  3)  (  5, 12,  1)  (  5, 29,  7)  (  5, 27,  4)  (  5, 37,  1)
  0 -0.6716E-05  0  0.3982E-05  0 -0.3658E-05  0  0.3581E-05  0 -0.2549E-05
   (  5, 38,  4)  (  5, 34,  3)  (  5, 24,  8)  (  5, 25,  9)  (  5, 29,  1)
  0  0.1786E-05  0 -0.2130E-05  0  0.1771E-05  0 -0.1242E-05  0  0.1021E-05
   (  5, 30,  2)  (  5, 35,  3)  (  5, 32, 10)  (  5, 36, 12)  (  5, 34,  8)
  0 -0.6892E-06  1  0.5910E-06
   (  5, 38,  1)  (  5, 34,  2)

 MAXIMUM RESIDUAL FOR EACH ITERATION (1 INDICATES THE FIRST INNER ITERATION):

    RESIDUAL       RESIDUAL       RESIDUAL       RESIDUAL       RESIDUAL    
   LAYER,ROW,COL  LAYER,ROW,COL  LAYER,ROW,COL  LAYER,ROW,COL  LAYER,ROW,COL
 ---------------------------------------------------------------------------
  1 -0.1845E-02  0 -0.1419E-02  0 -0.1177E-02  0 -0.9476E-03  0 -0.8125E-03
   (  4, 44,  2)  (  4, 35, 35)  (  4, 35, 35)  (  3, 40, 27)  (  3, 40, 27)
  0 -0.6703E-03  0 -0.5254E-03  0 -0.4232E-03  0 -0.3225E-03  0  0.2503E-03
   (  3, 40, 27)  (  3, 40, 27)  (  3, 40, 27)  (  4, 35, 35)  (  3, 35, 35)
  0  0.1957E-03  0  0.1478E-03  0  0.1082E-03  0  0.8251E-04  0  0.6634E-04
   (  3, 35, 35)  (  3, 35, 35)  (  3, 35, 35)  (  4, 34, 35)  (  4, 34, 35)
  0  0.5419E-04  0  0.4298E-04  0  0.3669E-04  0  0.3162E-04  0  0.2435E-04
   (  4, 34, 35)  (  4, 34, 35)  (  4, 34, 35)  (  4, 34, 35)  (  4, 34, 35)
  0  0.1930E-04  0  0.1584E-04  0  0.1288E-04  0  0.9196E-05  0  0.6714E-05
   (  4, 34, 35)  (  4, 34, 35)  (  4, 34, 35)  (  4, 34, 35)  (  4, 34, 35)
  0  0.4939E-05  0  0.4077E-05  0  0.2923E-05  0 -0.2091E-05  0 -0.1560E-05
   (  4, 34, 35)  (  4, 34, 35)  (  4, 34, 35)  (  4, 35, 35)  (  4, 35, 35)
  1 -0.4859E-05  0 -0.4624E-05  0 -0.4197E-05  0 -0.4197E-05  0 -0.4494E-05
   (  3, 40,  4)  (  3, 40,  4)  (  3, 40,  4)  (  4, 32,  1)  (  4, 40,  1)
  0 -0.4848E-05  0 -0.5586E-05  0 -0.5142E-05  0 -0.4826E-05  0 -0.4527E-05
   (  4, 36,  1)  (  4, 40,  1)  (  4, 41,  1)  (  4, 42,  1)  (  4, 43,  1)
  0 -0.3991E-05  0 -0.3831E-05  0 -0.3376E-05  0 -0.2953E-05  0 -0.2336E-05
   (  4, 43,  1)  (  4, 43,  1)  (  4, 44,  1)  (  4, 44,  1)  (  4, 44,  1)
  0 -0.2158E-05  0 -0.1662E-05  0  0.1151E-05  0  0.1131E-05  0  0.1038E-05
   (  4, 44,  1)  (  4, 44,  1)  (  4, 44,  2)  (  4, 44,  2)  (  4, 44,  2)
  0  0.1002E-05  0  0.9367E-06  0  0.7982E-06  0  0.6155E-06  0  0.4202E-06
   (  4, 44,  2)  (  4, 44,  2)  (  4, 44,  2)  (  4, 44,  2)  (  4, 44,  2)
  0  0.2660E-06  0  0.2362E-06  0 -0.1462E-06  0 -0.1403E-06  0 -0.1226E-06
   (  4, 44,  2)  (  4, 44,  2)  (  4, 43,  2)  (  4, 43,  2)  (  4, 43,  2)
  1 -0.1215E-06  0 -0.1067E-06  0 -0.7729E-07  0 -0.6298E-07  0 -0.4645E-07
   (  4, 43,  2)  (  4, 43,  2)  (  4, 43,  2)  (  4, 43,  2)  (  4, 43,  2)
  0  0.3322E-07  0  0.2862E-07  0 -0.3149E-07  0 -0.3116E-07  0 -0.2499E-07
   (  4, 44,  2)  (  4, 44,  2)  (  4, 41,  3)  (  4, 41,  3)  (  4, 41,  3)
  0 -0.2360E-07  0 -0.1782E-07  0  0.1311E-07  0  0.9718E-08  0 -0.7430E-08
   (  4, 41,  3)  (  4, 41,  3)  (  4, 43,  2)  (  4, 43,  2)  (  4, 44,  1)
  0 -0.6435E-08  1 -0.6375E-08
   (  4, 44,  1)  (  4, 44,  1)



 OUTPUT CONTROL FOR STRESS PERIOD   41   TIME STEP    1
    SAVE HEAD FOR ALL LAYERS
    SAVE DRAWDOWN FOR ALL LAYERS
    SAVE BUDGET
    PRINT BUDGET
 UBDSV1 SAVING "         STORAGE" ON UNIT   9 AT TIME STEP  1, STRESS PERIOD  41
 UBDSV2 SAVING "   CONSTANT HEAD" ON UNIT   9 AT TIME STEP  1, STRESS PERIOD  41
 UBDSV1 SAVING "FLOW RIGHT FACE " ON UNIT   9 AT TIME STEP  1, STRESS PERIOD  41
 UBDSV1 SAVING "FLOW FRONT FACE " ON UNIT   9 AT TIME STEP  1, STRESS PERIOD  41
 UBDSV1 SAVING "FLOW LOWER FACE " ON UNIT   9 AT TIME STEP  1, STRESS PERIOD  41
 UBDSV3 SAVING "        RECHARGE" ON UNIT   9 AT TIME STEP  1, STRESS PERIOD  41

 HEAD WILL BE SAVED ON UNIT   37 AT END OF TIME STEP    1, STRESS PERIOD   41

 DRAWDOWN WILL BE SAVED ON UNIT   38 AT END OF TIME STEP    1, STRESS PERIOD   41
1
  VOLUMETRIC BUDGET FOR ENTIRE MODEL AT END OF TIME STEP    1, STRESS PERIOD  41
  ------------------------------------------------------------------------------

     CUMULATIVE VOLUMES      L**3       RATES FOR THIS TIME STEP      L**3/T
     ------------------                 ------------------------

           IN:                                      IN:
           ---                                      ---
             STORAGE =        9176.1045               STORAGE =           0.0000
       CONSTANT HEAD =       12623.6064         CONSTANT HEAD =       3.0479E-03
            RECHARGE =         511.7886              RECHARGE =       1.0213E-04

            TOTAL IN =       22311.5000              TOTAL IN =       3.1500E-03

          OUT:                                     OUT:
          ----                                     ----
             STORAGE =        4122.3901               STORAGE =       3.1100E-03
       CONSTANT HEAD =       18189.7129         CONSTANT HEAD =       4.0048E-05
            RECHARGE =           0.0000              RECHARGE =           0.0000

           TOTAL OUT =       22312.1035             TOTAL OUT =       3.1501E-03

            IN - OUT =          -0.6035              IN - OUT =      -8.1956E-08

 PERCENT DISCREPANCY =          -0.00     PERCENT DISCREPANCY =          -0.00






         TIME SUMMARY AT END OF TIME STEP    1 IN STRESS PERIOD   41
                    SECONDS     MINUTES      HOURS       DAYS        YEARS
                    -----------------------------------------------------------
   TIME STEP LENGTH  86400.      1440.0      24.000      1.0000     2.73785E-03
 STRESS PERIOD TIME  86400.      1440.0      24.000      1.0000     2.73785E-03
         TOTAL TIME 5.01120E+06  83520.      1392.0      58.000     0.15880    
1
1
                            STRESS PERIOD NO.   42, LENGTH =   86400.00    
                            -----------------------------------------------

                              NUMBER OF TIME STEPS =     1

                               MULTIPLIER FOR DELT =     1.000

                            INITIAL TIME STEP SIZE =   86400.00    

 REUSING RECH FROM LAST STRESS PERIOD

 CHD NO.   LAYER   ROW   COL    START HEAD        END HEAD         IFACE           
 ----------------------------------------------------------------------------------
      1      4      3      1       109.5           109.6           0.000    
      2      5      3      1       109.5           109.6           0.000    
      3      4      3      2       109.5           109.6           0.000    
      4      5      3      2       109.5           109.6           0.000    
      5      4      3      3       109.5           109.6           0.000    
      6      5      3      3       109.5           109.6           0.000    
      7      4      3      4       109.5           109.6           0.000    
      8      5      3      4       109.5           109.6           0.000    
      9      4      3      5       109.5           109.6           0.000    
     10      5      3      5       109.5           109.6           0.000    
     11      4      3      6       109.5           109.6           0.000    
     12      5      3      6       109.5           109.6           0.000    
     13      4      3      7       109.5           109.6           0.000    
     14      5      3      7       109.5           109.6           0.000    
     15      4      3      8       109.5           109.6           0.000    
     16      5      3      8       109.5           109.6           0.000    
     17      4      2      8       109.5           109.6           0.000    
     18      5      2      8       109.5           109.6           0.000    
     19      4      2      9       109.5           109.6           0.000    
     20      5      2      9       109.5           109.6           0.000    
     21      4      2     10       109.5           109.6           0.000    
     22      5      2     10       109.5           109.6           0.000    
     23      4      2     11       109.5           109.6           0.000    
     24      5      2     11       109.5           109.6           0.000    
     25      4      2     12       109.5           109.6           0.000    
     26      5      2     12       109.5           109.6           0.000    
     27      4      2     13       109.5           109.6           0.000    
     28      5      2     13       109.5           109.6           0.000    
     29      4      2     14       109.5           109.6           0.000    
     30      5      2     14       109.5           109.6           0.000    
     31      4      2     15       109.5           109.6           0.000    
     32      5      2     15       109.5           109.6           0.000    
     33      4      2     16       109.5           109.6           0.000    
     34      5      2     16       109.5           109.6           0.000    
     35      4      2     17       109.5           109.6           0.000    
     36      5      2     17       109.5           109.6           0.000    
     37      4      2     18       109.5           109.6           0.000    
     38      5      2     18       109.5           109.6           0.000    
     39      4      2     19       109.5           109.6           0.000    
     40      5      2     19       109.5           109.6           0.000    
     41      4      2     20       109.5           109.6           0.000    
     42      5      2     20       109.5           109.6           0.000    
     43      4      2     21       109.5           109.6           0.000    
     44      5      2     21       109.5           109.6           0.000    
     45      4      2     22       109.5           109.6           0.000    
     46      5      2     22       109.5           109.6           0.000    
     47      4      2     23       109.5           109.6           0.000    
     48      5      2     23       109.5           109.6           0.000    
     49      4      2     24       109.5           109.6           0.000    
     50      5      2     24       109.5           109.6           0.000    
     51      4      2     25       109.5           109.6           0.000    
     52      5      2     25       109.5           109.6           0.000    
     53      4      2     26       109.5           109.6           0.000    
     54      5      2     26       109.5           109.6           0.000    
     55      4      1     26       109.5           109.6           0.000    
     56      5      1     26       109.5           109.6           0.000    
     57      4      1     27       109.5           109.6           0.000    
     58      5      1     27       109.5           109.6           0.000    
     59      4      1     28       109.5           109.6           0.000    
     60      5      1     28       109.5           109.6           0.000    
     61      4      1     29       109.5           109.6           0.000    
     62      5      1     29       109.5           109.6           0.000    
     63      4      1     30       109.5           109.6           0.000    
     64      5      1     30       109.5           109.6           0.000    
     65      4      1     31       109.5           109.6           0.000    
     66      5      1     31       109.5           109.6           0.000    
     67      4      1     32       109.5           109.6           0.000    
     68      5      1     32       109.5           109.6           0.000    
     69      4      1     33       109.5           109.6           0.000    
     70      5      1     33       109.5           109.6           0.000    
     71      4      1     34       109.5           109.6           0.000    
     72      5      1     34       109.5           109.6           0.000    
     73      4      1     35       109.5           109.6           0.000    
     74      5      1     35       109.5           109.6           0.000    
     75      4     36     35       109.4           109.4           0.000    
     76      5     36     35       109.4           109.4           0.000    
     77      4     35     34       109.4           109.4           0.000    
     78      5     35     34       109.4           109.4           0.000    
     79      4     36     34       109.4           109.4           0.000    
     80      5     36     34       109.4           109.4           0.000    
     81      4     36     33       109.4           109.4           0.000    
     82      5     36     33       109.4           109.4           0.000    
     83      4     36     32       109.4           109.4           0.000    
     84      5     36     32       109.4           109.4           0.000    
     85      4     37     32       109.4           109.4           0.000    
     86      5     37     32       109.4           109.4           0.000    
     87      4     37     31       109.4           109.4           0.000    
     88      5     37     31       109.4           109.4           0.000    
     89      4     38     31       109.4           109.4           0.000    
     90      5     38     31       109.4           109.4           0.000    
     91      4     38     30       109.4           109.4           0.000    
     92      5     38     30       109.4           109.4           0.000    
     93      4     39     30       109.4           109.4           0.000    
     94      5     39     30       109.4           109.4           0.000    
     95      4     39     29       109.4           109.4           0.000    
     96      5     39     29       109.4           109.4           0.000    
     97      4     40     29       109.4           109.4           0.000    
     98      5     40     29       109.4           109.4           0.000    
     99      4     40     28       109.4           109.4           0.000    
    100      5     40     28       109.4           109.4           0.000    
    101      4     40     27       109.4           109.4           0.000    
    102      5     40     27       109.4           109.4           0.000    
    103      4     41     27       109.4           109.4           0.000    
    104      5     41     27       109.4           109.4           0.000    
    105      4     41     26       109.4           109.4           0.000    
    106      5     41     26       109.4           109.4           0.000    
    107      4     41     25       109.4           109.4           0.000    
    108      5     41     25       109.4           109.4           0.000    
    109      4     41     24       109.4           109.4           0.000    
    110      5     41     24       109.4           109.4           0.000    
    111      4     41     23       109.4           109.4           0.000    
    112      5     41     23       109.4           109.4           0.000    
    113      4     41     22       109.4           109.4           0.000    
    114      5     41     22       109.4           109.4           0.000    
    115      4     42     22       109.4           109.4           0.000    
    116      5     42     22       109.4           109.4           0.000    
    117      4     42     21       109.4           109.4           0.000    
    118      5     42     21       109.4           109.4           0.000    
    119      4     42     20       109.4           109.4           0.000    
    120      5     42     20       109.4           109.4           0.000    
    121      4     42     19       109.4           109.4           0.000    
    122      5     42     19       109.4           109.4           0.000    
    123      4     43     18       109.4           109.4           0.000    
    124      5     43     18       109.4           109.4           0.000    
    125      4     42     18       109.4           109.4           0.000    
    126      5     42     18       109.4           109.4           0.000    
    127      4     42     17       109.4           109.4           0.000    
    128      5     42     17       109.4           109.4           0.000    
    129      4     42     16       109.4           109.4           0.000    
    130      5     42     16       109.4           109.4           0.000    
    131      4     42     15       109.4           109.4           0.000    
    132      5     42     15       109.4           109.4           0.000    
    133      4     43     15       109.4           109.4           0.000    
    134      5     43     15       109.4           109.4           0.000    
    135      4     43     14       109.4           109.4           0.000    
    136      5     43     14       109.4           109.4           0.000    
    137      4     43     13       109.4           109.4           0.000    
    138      5     43     13       109.4           109.4           0.000    
    139      4     43     12       109.4           109.4           0.000    
    140      5     43     12       109.4           109.4           0.000    
    141      4     43     11       109.4           109.4           0.000    
    142      5     43     11       109.4           109.4           0.000    
    143      4     43     10       109.4           109.4           0.000    
    144      5     43     10       109.4           109.4           0.000    
    145      4     44     10       109.4           109.4           0.000    
    146      5     44     10       109.4           109.4           0.000    
    147      4     44      9       109.4           109.4           0.000    
    148      5     44      9       109.4           109.4           0.000    
    149      4     44      8       109.4           109.4           0.000    
    150      5     44      8       109.4           109.4           0.000    
    151      4     44      7       109.4           109.4           0.000    
    152      5     44      7       109.4           109.4           0.000    
    153      4     44      6       109.4           109.4           0.000    
    154      5     44      6       109.4           109.4           0.000    
    155      4     44      5       109.4           109.4           0.000    
    156      5     44      5       109.4           109.4           0.000    
    157      4     44      4       109.4           109.4           0.000    
    158      5     44      4       109.4           109.4           0.000    
    159      4     44      3       109.4           109.4           0.000    
    160      5     44      3       109.4           109.4           0.000    
    161      4     45      3       109.4           109.4           0.000    
    162      5     45      3       109.4           109.4           0.000    
    163      4     45      2       109.4           109.4           0.000    
    164      5     45      2       109.4           109.4           0.000    
    165      4     45      1       109.4           109.4           0.000    
    166      5     45      1       109.4           109.4           0.000    


    166 TIME-VARIANT SPECIFIED-HEAD CELLS

 SOLVING FOR HEAD 


     3 CALLS TO PCG ROUTINE FOR TIME STEP   1 IN STRESS PERIOD   42
    58 TOTAL ITERATIONS

 MAXIMUM HEAD CHANGE FOR EACH ITERATION (1 INDICATES THE FIRST INNER ITERATION):

    HEAD CHANGE    HEAD CHANGE    HEAD CHANGE    HEAD CHANGE    HEAD CHANGE 
   LAYER,ROW,COL  LAYER,ROW,COL  LAYER,ROW,COL  LAYER,ROW,COL  LAYER,ROW,COL
 ---------------------------------------------------------------------------
  1  0.8526E-01  0 -0.7673E-01  0 -0.3479E-01  0  0.3487E-01  0  0.2528E-01
   (  5, 32,  4)  (  5, 30,  2)  (  5, 32, 10)  (  5, 35,  2)  (  5, 30,  8)
  0 -0.1568E-01  0  0.1932E-01  0 -0.1341E-01  0  0.1091E-01  0 -0.8034E-02
   (  5, 25,  4)  (  5, 38,  2)  (  5, 38,  2)  (  5, 39,  1)  (  5, 32, 11)
  0 -0.5880E-02  0 -0.3784E-02  0  0.5990E-02  0  0.4176E-02  0  0.2378E-02
   (  5, 39,  1)  (  5, 30,  3)  (  5, 31, 10)  (  5, 37,  7)  (  5, 25,  7)
  0  0.2530E-02  0  0.1533E-02  0 -0.1687E-02  0 -0.1012E-02  0 -0.8513E-03
   (  5, 15,  1)  (  5, 38,  5)  (  5, 34,  1)  (  5, 23, 10)  (  5, 31,  3)
  0  0.5770E-03  0  0.8008E-03  0 -0.6945E-03  0  0.5191E-03  0 -0.4868E-03
   (  5, 27,  1)  (  5, 40,  2)  (  5, 39,  1)  (  5, 36,  1)  (  5, 39,  5)
  0  0.3557E-03  0  0.2897E-03  0 -0.1694E-03  0  0.1427E-03  0  0.1041E-03
   (  5, 40,  5)  (  5, 13,  2)  (  5, 39,  4)  (  5, 29,  2)  (  5, 38,  2)
  1  0.7906E-04  0 -0.1008E-03  0  0.1232E-03  0 -0.1182E-03  0  0.1279E-03
   (  5, 27,  4)  (  5, 28,  2)  (  5, 32,  2)  (  5, 37,  1)  (  5, 39,  2)
  0 -0.7520E-04  0  0.6398E-04  0 -0.4267E-04  0  0.4379E-04  0  0.3769E-04
   (  5, 40,  5)  (  5, 24,  5)  (  5, 22,  8)  (  5, 25,  9)  (  5, 34,  2)
  0  0.3519E-04  0 -0.2276E-04  0  0.2120E-04  0  0.1414E-04  0  0.1265E-04
   (  5, 30,  2)  (  5, 34,  3)  (  5, 39,  6)  (  5, 41,  2)  (  5, 32,  8)
  0  0.1187E-04  0 -0.9236E-05  0  0.9225E-05  0  0.5192E-05  0 -0.2868E-05
   (  5, 35,  2)  (  5, 41,  1)  (  5, 39,  1)  (  5, 33,  1)  (  5, 30,  2)
  0  0.4376E-05  0  0.2849E-05  0  0.2541E-05  0  0.1855E-05  0 -0.1406E-05
   (  5, 37,  7)  (  5, 36,  1)  (  5, 30,  1)  (  5, 37,  8)  (  5, 34,  9)
  0  0.1064E-05  0  0.8950E-06  1 -0.8243E-06
   (  5, 35,  9)  (  5, 36,  3)  (  5, 35,  3)

 MAXIMUM RESIDUAL FOR EACH ITERATION (1 INDICATES THE FIRST INNER ITERATION):

    RESIDUAL       RESIDUAL       RESIDUAL       RESIDUAL       RESIDUAL    
   LAYER,ROW,COL  LAYER,ROW,COL  LAYER,ROW,COL  LAYER,ROW,COL  LAYER,ROW,COL
 ---------------------------------------------------------------------------
  1 -0.4122E-03  0 -0.2376E-03  0 -0.1809E-03  0 -0.1541E-03  0  0.1339E-03
   (  3,  3,  1)  (  3,  3,  1)  (  3,  3,  1)  (  3,  3,  1)  (  3,  4,  4)
  0  0.1271E-03  0  0.1067E-03  0  0.9232E-04  0  0.6968E-04  0  0.5041E-04
   (  3,  4,  4)  (  3,  4,  4)  (  3,  4,  3)  (  3,  4,  3)  (  3,  3,  9)
  0  0.4185E-04  0  0.3999E-04  0  0.3229E-04  0  0.2560E-04  0  0.1985E-04
   (  3,  3,  9)  (  3,  3,  9)  (  3,  3,  9)  (  3,  3,  9)  (  3,  3,  9)
  0  0.1541E-04  0  0.1330E-04  0  0.1123E-04  0  0.8705E-05  0  0.7377E-05
   (  3,  3,  9)  (  3,  3,  9)  (  3,  3,  9)  (  3,  3,  9)  (  3,  3,  8)
  0  0.7030E-05  0  0.5681E-05  0  0.4715E-05  0  0.4237E-05  0  0.3079E-05
   (  3,  3,  8)  (  3,  3,  7)  (  3,  3,  7)  (  3,  3,  7)  (  3,  3,  2)
  0  0.2155E-05  0  0.1491E-05  0  0.1224E-05  0  0.1062E-05  0  0.9616E-06
   (  3,  3,  2)  (  3,  3,  2)  (  3,  3,  2)  (  3,  3,  2)  (  3,  3,  2)
  1  0.8785E-06  0  0.8387E-06  0  0.7976E-06  0  0.6697E-06  0  0.5895E-06
   (  3,  3,  2)  (  3,  3,  2)  (  3,  3,  2)  (  3,  3,  2)  (  3,  3,  2)
  0  0.4790E-06  0  0.4078E-06  0  0.3069E-06  0  0.2386E-06  0 -0.1746E-06
   (  3,  3,  2)  (  3,  3,  2)  (  3,  3,  2)  (  3,  3,  2)  (  3,  3,  1)
  0 -0.1531E-06  0 -0.1345E-06  0 -0.1039E-06  0 -0.8493E-07  0 -0.7514E-07
   (  3,  3,  1)  (  3,  3,  1)  (  3,  3,  1)  (  3,  3,  1)  (  3,  3,  1)
  0 -0.6634E-07  0 -0.5328E-07  0 -0.3775E-07  0 -0.2894E-07  0 -0.2769E-07
   (  3,  3,  1)  (  3,  3,  1)  (  3,  3,  1)  (  3,  3,  1)  (  3,  3,  1)
  0 -0.2155E-07  0 -0.1893E-07  0 -0.1538E-07  0 -0.1189E-07  0 -0.8862E-08
   (  3,  3,  1)  (  3,  3,  1)  (  3,  3,  1)  (  3,  3,  1)  (  3,  3,  1)
  0 -0.6590E-08  0 -0.6003E-08  1 -0.5999E-08
   (  3,  3,  1)  (  3,  3,  1)  (  3,  3,  1)



 OUTPUT CONTROL FOR STRESS PERIOD   42   TIME STEP    1
    SAVE HEAD FOR ALL LAYERS
    SAVE DRAWDOWN FOR ALL LAYERS
    SAVE BUDGET
    PRINT BUDGET
 UBDSV1 SAVING "         STORAGE" ON UNIT   9 AT TIME STEP  1, STRESS PERIOD  42
 UBDSV2 SAVING "   CONSTANT HEAD" ON UNIT   9 AT TIME STEP  1, STRESS PERIOD  42
 UBDSV1 SAVING "FLOW RIGHT FACE " ON UNIT   9 AT TIME STEP  1, STRESS PERIOD  42
 UBDSV1 SAVING "FLOW FRONT FACE " ON UNIT   9 AT TIME STEP  1, STRESS PERIOD  42
 UBDSV1 SAVING "FLOW LOWER FACE " ON UNIT   9 AT TIME STEP  1, STRESS PERIOD  42
 UBDSV3 SAVING "        RECHARGE" ON UNIT   9 AT TIME STEP  1, STRESS PERIOD  42

 HEAD WILL BE SAVED ON UNIT   37 AT END OF TIME STEP    1, STRESS PERIOD   42

 DRAWDOWN WILL BE SAVED ON UNIT   38 AT END OF TIME STEP    1, STRESS PERIOD   42
1
  VOLUMETRIC BUDGET FOR ENTIRE MODEL AT END OF TIME STEP    1, STRESS PERIOD  42
  ------------------------------------------------------------------------------

     CUMULATIVE VOLUMES      L**3       RATES FOR THIS TIME STEP      L**3/T
     ------------------                 ------------------------

           IN:                                      IN:
           ---                                      ---
             STORAGE =        9176.2930               STORAGE =       2.1819E-06
       CONSTANT HEAD =       12825.1494         CONSTANT HEAD =       2.3327E-03
            RECHARGE =         520.6125              RECHARGE =       1.0213E-04

            TOTAL IN =       22522.0547              TOTAL IN =       2.4370E-03

          OUT:                                     OUT:
          ----                                     ----
             STORAGE =        4243.4263               STORAGE =       1.4009E-03
       CONSTANT HEAD =       18279.2344         CONSTANT HEAD =       1.0361E-03
            RECHARGE =           0.0000              RECHARGE =           0.0000

           TOTAL OUT =       22522.6602             TOTAL OUT =       2.4370E-03

            IN - OUT =          -0.6055              IN - OUT =      -3.1199E-08

 PERCENT DISCREPANCY =          -0.00     PERCENT DISCREPANCY =          -0.00






         TIME SUMMARY AT END OF TIME STEP    1 IN STRESS PERIOD   42
                    SECONDS     MINUTES      HOURS       DAYS        YEARS
                    -----------------------------------------------------------
   TIME STEP LENGTH  86400.      1440.0      24.000      1.0000     2.73785E-03
 STRESS PERIOD TIME  86400.      1440.0      24.000      1.0000     2.73785E-03
         TOTAL TIME 5.09760E+06  84960.      1416.0      59.000     0.16153    
1
1
                            STRESS PERIOD NO.   43, LENGTH =   86400.00    
                            -----------------------------------------------

                              NUMBER OF TIME STEPS =     1

                               MULTIPLIER FOR DELT =     1.000

                            INITIAL TIME STEP SIZE =   86400.00    

 REUSING RECH FROM LAST STRESS PERIOD

 CHD NO.   LAYER   ROW   COL    START HEAD        END HEAD         IFACE           
 ----------------------------------------------------------------------------------
      1      4      3      1       109.6           109.5           0.000    
      2      5      3      1       109.6           109.5           0.000    
      3      4      3      2       109.6           109.5           0.000    
      4      5      3      2       109.6           109.5           0.000    
      5      4      3      3       109.6           109.5           0.000    
      6      5      3      3       109.6           109.5           0.000    
      7      4      3      4       109.6           109.5           0.000    
      8      5      3      4       109.6           109.5           0.000    
      9      4      3      5       109.6           109.5           0.000    
     10      5      3      5       109.6           109.5           0.000    
     11      4      3      6       109.6           109.5           0.000    
     12      5      3      6       109.6           109.5           0.000    
     13      4      3      7       109.6           109.5           0.000    
     14      5      3      7       109.6           109.5           0.000    
     15      4      3      8       109.6           109.5           0.000    
     16      5      3      8       109.6           109.5           0.000    
     17      4      2      8       109.6           109.5           0.000    
     18      5      2      8       109.6           109.5           0.000    
     19      4      2      9       109.6           109.5           0.000    
     20      5      2      9       109.6           109.5           0.000    
     21      4      2     10       109.6           109.5           0.000    
     22      5      2     10       109.6           109.5           0.000    
     23      4      2     11       109.6           109.5           0.000    
     24      5      2     11       109.6           109.5           0.000    
     25      4      2     12       109.6           109.5           0.000    
     26      5      2     12       109.6           109.5           0.000    
     27      4      2     13       109.6           109.5           0.000    
     28      5      2     13       109.6           109.5           0.000    
     29      4      2     14       109.6           109.5           0.000    
     30      5      2     14       109.6           109.5           0.000    
     31      4      2     15       109.6           109.5           0.000    
     32      5      2     15       109.6           109.5           0.000    
     33      4      2     16       109.6           109.5           0.000    
     34      5      2     16       109.6           109.5           0.000    
     35      4      2     17       109.6           109.5           0.000    
     36      5      2     17       109.6           109.5           0.000    
     37      4      2     18       109.6           109.5           0.000    
     38      5      2     18       109.6           109.5           0.000    
     39      4      2     19       109.6           109.5           0.000    
     40      5      2     19       109.6           109.5           0.000    
     41      4      2     20       109.6           109.5           0.000    
     42      5      2     20       109.6           109.5           0.000    
     43      4      2     21       109.6           109.5           0.000    
     44      5      2     21       109.6           109.5           0.000    
     45      4      2     22       109.6           109.5           0.000    
     46      5      2     22       109.6           109.5           0.000    
     47      4      2     23       109.6           109.5           0.000    
     48      5      2     23       109.6           109.5           0.000    
     49      4      2     24       109.6           109.5           0.000    
     50      5      2     24       109.6           109.5           0.000    
     51      4      2     25       109.6           109.5           0.000    
     52      5      2     25       109.6           109.5           0.000    
     53      4      2     26       109.6           109.5           0.000    
     54      5      2     26       109.6           109.5           0.000    
     55      4      1     26       109.6           109.5           0.000    
     56      5      1     26       109.6           109.5           0.000    
     57      4      1     27       109.6           109.5           0.000    
     58      5      1     27       109.6           109.5           0.000    
     59      4      1     28       109.6           109.5           0.000    
     60      5      1     28       109.6           109.5           0.000    
     61      4      1     29       109.6           109.5           0.000    
     62      5      1     29       109.6           109.5           0.000    
     63      4      1     30       109.6           109.5           0.000    
     64      5      1     30       109.6           109.5           0.000    
     65      4      1     31       109.6           109.5           0.000    
     66      5      1     31       109.6           109.5           0.000    
     67      4      1     32       109.6           109.5           0.000    
     68      5      1     32       109.6           109.5           0.000    
     69      4      1     33       109.6           109.5           0.000    
     70      5      1     33       109.6           109.5           0.000    
     71      4      1     34       109.6           109.5           0.000    
     72      5      1     34       109.6           109.5           0.000    
     73      4      1     35       109.6           109.5           0.000    
     74      5      1     35       109.6           109.5           0.000    
     75      4     36     35       109.4           109.3           0.000    
     76      5     36     35       109.4           109.3           0.000    
     77      4     35     34       109.4           109.3           0.000    
     78      5     35     34       109.4           109.3           0.000    
     79      4     36     34       109.4           109.3           0.000    
     80      5     36     34       109.4           109.3           0.000    
     81      4     36     33       109.4           109.3           0.000    
     82      5     36     33       109.4           109.3           0.000    
     83      4     36     32       109.4           109.3           0.000    
     84      5     36     32       109.4           109.3           0.000    
     85      4     37     32       109.4           109.3           0.000    
     86      5     37     32       109.4           109.3           0.000    
     87      4     37     31       109.4           109.3           0.000    
     88      5     37     31       109.4           109.3           0.000    
     89      4     38     31       109.4           109.3           0.000    
     90      5     38     31       109.4           109.3           0.000    
     91      4     38     30       109.4           109.3           0.000    
     92      5     38     30       109.4           109.3           0.000    
     93      4     39     30       109.4           109.3           0.000    
     94      5     39     30       109.4           109.3           0.000    
     95      4     39     29       109.4           109.3           0.000    
     96      5     39     29       109.4           109.3           0.000    
     97      4     40     29       109.4           109.3           0.000    
     98      5     40     29       109.4           109.3           0.000    
     99      4     40     28       109.4           109.3           0.000    
    100      5     40     28       109.4           109.3           0.000    
    101      4     40     27       109.4           109.3           0.000    
    102      5     40     27       109.4           109.3           0.000    
    103      4     41     27       109.4           109.3           0.000    
    104      5     41     27       109.4           109.3           0.000    
    105      4     41     26       109.4           109.3           0.000    
    106      5     41     26       109.4           109.3           0.000    
    107      4     41     25       109.4           109.3           0.000    
    108      5     41     25       109.4           109.3           0.000    
    109      4     41     24       109.4           109.3           0.000    
    110      5     41     24       109.4           109.3           0.000    
    111      4     41     23       109.4           109.3           0.000    
    112      5     41     23       109.4           109.3           0.000    
    113      4     41     22       109.4           109.3           0.000    
    114      5     41     22       109.4           109.3           0.000    
    115      4     42     22       109.4           109.3           0.000    
    116      5     42     22       109.4           109.3           0.000    
    117      4     42     21       109.4           109.3           0.000    
    118      5     42     21       109.4           109.3           0.000    
    119      4     42     20       109.4           109.3           0.000    
    120      5     42     20       109.4           109.3           0.000    
    121      4     42     19       109.4           109.3           0.000    
    122      5     42     19       109.4           109.3           0.000    
    123      4     43     18       109.4           109.3           0.000    
    124      5     43     18       109.4           109.3           0.000    
    125      4     42     18       109.4           109.3           0.000    
    126      5     42     18       109.4           109.3           0.000    
    127      4     42     17       109.4           109.3           0.000    
    128      5     42     17       109.4           109.3           0.000    
    129      4     42     16       109.4           109.3           0.000    
    130      5     42     16       109.4           109.3           0.000    
    131      4     42     15       109.4           109.3           0.000    
    132      5     42     15       109.4           109.3           0.000    
    133      4     43     15       109.4           109.3           0.000    
    134      5     43     15       109.4           109.3           0.000    
    135      4     43     14       109.4           109.3           0.000    
    136      5     43     14       109.4           109.3           0.000    
    137      4     43     13       109.4           109.3           0.000    
    138      5     43     13       109.4           109.3           0.000    
    139      4     43     12       109.4           109.3           0.000    
    140      5     43     12       109.4           109.3           0.000    
    141      4     43     11       109.4           109.3           0.000    
    142      5     43     11       109.4           109.3           0.000    
    143      4     43     10       109.4           109.3           0.000    
    144      5     43     10       109.4           109.3           0.000    
    145      4     44     10       109.4           109.3           0.000    
    146      5     44     10       109.4           109.3           0.000    
    147      4     44      9       109.4           109.3           0.000    
    148      5     44      9       109.4           109.3           0.000    
    149      4     44      8       109.4           109.3           0.000    
    150      5     44      8       109.4           109.3           0.000    
    151      4     44      7       109.4           109.3           0.000    
    152      5     44      7       109.4           109.3           0.000    
    153      4     44      6       109.4           109.3           0.000    
    154      5     44      6       109.4           109.3           0.000    
    155      4     44      5       109.4           109.3           0.000    
    156      5     44      5       109.4           109.3           0.000    
    157      4     44      4       109.4           109.3           0.000    
    158      5     44      4       109.4           109.3           0.000    
    159      4     44      3       109.4           109.3           0.000    
    160      5     44      3       109.4           109.3           0.000    
    161      4     45      3       109.4           109.3           0.000    
    162      5     45      3       109.4           109.3           0.000    
    163      4     45      2       109.4           109.3           0.000    
    164      5     45      2       109.4           109.3           0.000    
    165      4     45      1       109.4           109.2           0.000    
    166      5     45      1       109.4           109.2           0.000    


    166 TIME-VARIANT SPECIFIED-HEAD CELLS

 SOLVING FOR HEAD 


     4 CALLS TO PCG ROUTINE FOR TIME STEP   1 IN STRESS PERIOD   43
    70 TOTAL ITERATIONS

 MAXIMUM HEAD CHANGE FOR EACH ITERATION (1 INDICATES THE FIRST INNER ITERATION):

    HEAD CHANGE    HEAD CHANGE    HEAD CHANGE    HEAD CHANGE    HEAD CHANGE 
   LAYER,ROW,COL  LAYER,ROW,COL  LAYER,ROW,COL  LAYER,ROW,COL  LAYER,ROW,COL
 ---------------------------------------------------------------------------
  1 -0.4072      0  0.2308      0 -0.1335      0  0.1123      0 -0.1565    
   (  5, 43,  5)  (  5, 35,  1)  (  5, 31,  2)  (  5, 41,  2)  (  5, 37,  1)
  0 -0.8052E-01  0 -0.9786E-01  0  0.1069      0  0.6128E-01  0  0.4715E-01
   (  5, 39,  1)  (  5, 40,  1)  (  5, 37,  1)  (  5, 37,  6)  (  5, 40,  1)
  0  0.3810E-01  0 -0.3345E-01  0 -0.1457E-01  0  0.2503E-01  0 -0.1858E-01
   (  5, 35,  9)  (  5, 33,  9)  (  5, 30,  1)  (  5, 31,  9)  (  5, 36,  8)
  0 -0.1226E-01  0  0.1372E-01  0 -0.9515E-02  0  0.7738E-02  0  0.6327E-02
   (  5, 35,  2)  (  5, 34,  9)  (  5, 31,  9)  (  5, 30, 10)  (  5, 38,  4)
  0 -0.4558E-02  0  0.3602E-02  0  0.2269E-02  0 -0.2962E-02  0  0.2809E-02
   (  5, 37,  1)  (  5, 40,  2)  (  5, 33,  4)  (  5, 14,  1)  (  5, 13,  1)
  0 -0.1901E-02  0  0.1695E-02  0 -0.9271E-03  0 -0.9175E-03  0 -0.6477E-03
   (  5, 39,  2)  (  5, 37,  1)  (  5, 34,  4)  (  5, 40,  2)  (  5, 36,  1)
  1  0.9861E-03  0 -0.7627E-03  0  0.7754E-03  0  0.1020E-02  0  0.9081E-03
   (  5, 35,  1)  (  5, 30,  1)  (  5, 27,  2)  (  5, 32,  3)  (  5, 35,  1)
  0  0.6999E-03  0  0.4450E-03  0  0.4182E-03  0  0.4706E-03  0 -0.2681E-03
   (  5, 38,  1)  (  5, 25,  8)  (  5, 35,  3)  (  5, 41,  1)  (  5, 39,  1)
  0  0.1525E-03  0  0.1477E-03  0  0.8052E-04  0 -0.1001E-03  0  0.8179E-04
   (  5, 36,  1)  (  5, 41,  1)  (  5, 25,  1)  (  5, 30, 10)  (  5, 30,  6)
  0  0.6505E-04  0 -0.3352E-04  0  0.3043E-04  0  0.3324E-04  0  0.2655E-04
   (  5, 39,  1)  (  5, 15,  1)  (  5, 30,  8)  (  5, 34,  3)  (  5, 28, 11)
  0  0.1994E-04  0  0.1126E-04  0  0.1178E-04  0 -0.1249E-04  0  0.1149E-04
   (  5, 12,  1)  (  5, 35,  2)  (  5, 27,  2)  (  5, 36,  1)  (  5, 34,  6)
  0 -0.7263E-05  0 -0.6004E-05  0  0.3436E-05  0  0.2406E-05  0 -0.2404E-05
   (  5, 37, 10)  (  5, 13,  2)  (  5, 14,  1)  (  5, 40,  4)  (  5, 38,  1)
  1 -0.1715E-05  0  0.1278E-05  0 -0.1512E-05  0 -0.1382E-05  0 -0.1373E-05
   (  5, 30,  2)  (  5, 28,  2)  (  5, 26,  4)  (  5, 34,  1)  (  5, 25,  7)
  0 -0.1224E-05  0 -0.1442E-05  0  0.1240E-05  0 -0.6380E-06  1  0.5723E-06
   (  5, 32,  7)  (  5, 37,  1)  (  5, 35,  1)  (  5, 31,  8)  (  5, 30,  9)

 MAXIMUM RESIDUAL FOR EACH ITERATION (1 INDICATES THE FIRST INNER ITERATION):

    RESIDUAL       RESIDUAL       RESIDUAL       RESIDUAL       RESIDUAL    
   LAYER,ROW,COL  LAYER,ROW,COL  LAYER,ROW,COL  LAYER,ROW,COL  LAYER,ROW,COL
 ---------------------------------------------------------------------------
  1  0.1967E-02  0  0.1487E-02  0  0.1249E-02  0  0.1095E-02  0  0.9131E-03
   (  4, 44,  2)  (  4, 44,  2)  (  4, 44,  2)  (  4, 35, 35)  (  4, 35, 35)
  0  0.7787E-03  0  0.6562E-03  0  0.5211E-03  0  0.4165E-03  0  0.3172E-03
   (  3, 40, 27)  (  3, 40, 27)  (  3, 40, 27)  (  3, 40, 27)  (  3, 40, 27)
  0 -0.2524E-03  0 -0.2030E-03  0 -0.1932E-03  0 -0.1518E-03  0 -0.1225E-03
   (  4, 43,  4)  (  4, 43,  4)  (  4, 43,  4)  (  4, 43,  4)  (  4, 43,  4)
  0 -0.1099E-03  0 -0.8887E-04  0 -0.7101E-04  0 -0.5794E-04  0 -0.4556E-04
   (  4, 43,  4)  (  4, 44,  2)  (  4, 44,  2)  (  4, 44,  2)  (  4, 34, 35)
  0 -0.4192E-04  0 -0.3460E-04  0 -0.3245E-04  0 -0.2658E-04  0 -0.2115E-04
   (  4, 34, 35)  (  4, 34, 35)  (  4, 34, 35)  (  4, 34, 35)  (  4, 34, 35)
  0 -0.1796E-04  0 -0.1595E-04  0 -0.1475E-04  0 -0.1105E-04  0 -0.7836E-05
   (  4, 34, 35)  (  4, 34, 35)  (  4, 34, 35)  (  4, 34, 35)  (  4, 34, 35)
  1 -0.7439E-05  0 -0.6921E-05  0 -0.6282E-05  0 -0.5015E-05  0 -0.4009E-05
   (  4, 34, 35)  (  4, 34, 35)  (  4, 34, 35)  (  4, 34, 35)  (  4, 34, 35)
  0 -0.2956E-05  0 -0.2749E-05  0 -0.2663E-05  0 -0.2559E-05  0 -0.2113E-05
   (  4, 34, 35)  (  4, 43,  1)  (  4, 43,  1)  (  4, 43,  1)  (  4, 43,  1)
  0 -0.1663E-05  0 -0.1183E-05  0 -0.1094E-05  0 -0.8288E-06  0  0.5764E-06
   (  4, 43,  1)  (  4, 43,  1)  (  4, 44,  1)  (  4, 44,  1)  (  4, 44,  2)
  0  0.5735E-06  0  0.5168E-06  0  0.4567E-06  0  0.4051E-06  0  0.3128E-06
   (  4, 44,  2)  (  4, 44,  2)  (  4, 44,  2)  (  4, 44,  2)  (  4, 44,  2)
  0  0.2084E-06  0  0.1771E-06  0  0.1418E-06  0  0.1089E-06  0 -0.8133E-07
   (  4, 44,  2)  (  4, 44,  2)  (  4, 44,  2)  (  4, 44,  2)  (  4, 43,  2)
  0 -0.6831E-07  0 -0.5150E-07  0 -0.4102E-07  0 -0.3417E-07  0 -0.2425E-07
   (  4, 43,  2)  (  4, 43,  2)  (  4, 43,  2)  (  4, 43,  2)  (  4, 43,  2)
  1 -0.2135E-07  0 -0.2017E-07  0  0.1792E-07  0  0.1524E-07  0  0.1144E-07
   (  4, 43,  2)  (  4, 43,  2)  (  4, 43,  3)  (  4, 43,  3)  (  4, 43,  3)
  0  0.6882E-08  0  0.5065E-08  0 -0.4397E-08  0 -0.4276E-08  1 -0.3938E-08
   (  4, 43,  3)  (  4, 43,  3)  (  4, 42,  3)  (  4, 42,  3)  (  4, 42,  3)



 OUTPUT CONTROL FOR STRESS PERIOD   43   TIME STEP    1
    SAVE HEAD FOR ALL LAYERS
    SAVE DRAWDOWN FOR ALL LAYERS
    SAVE BUDGET
    PRINT BUDGET
 UBDSV1 SAVING "         STORAGE" ON UNIT   9 AT TIME STEP  1, STRESS PERIOD  43
 UBDSV2 SAVING "   CONSTANT HEAD" ON UNIT   9 AT TIME STEP  1, STRESS PERIOD  43
 UBDSV1 SAVING "FLOW RIGHT FACE " ON UNIT   9 AT TIME STEP  1, STRESS PERIOD  43
 UBDSV1 SAVING "FLOW FRONT FACE " ON UNIT   9 AT TIME STEP  1, STRESS PERIOD  43
 UBDSV1 SAVING "FLOW LOWER FACE " ON UNIT   9 AT TIME STEP  1, STRESS PERIOD  43
 UBDSV3 SAVING "        RECHARGE" ON UNIT   9 AT TIME STEP  1, STRESS PERIOD  43

 HEAD WILL BE SAVED ON UNIT   37 AT END OF TIME STEP    1, STRESS PERIOD   43

 DRAWDOWN WILL BE SAVED ON UNIT   38 AT END OF TIME STEP    1, STRESS PERIOD   43
1
  VOLUMETRIC BUDGET FOR ENTIRE MODEL AT END OF TIME STEP    1, STRESS PERIOD  43
  ------------------------------------------------------------------------------

     CUMULATIVE VOLUMES      L**3       RATES FOR THIS TIME STEP      L**3/T
     ------------------                 ------------------------

           IN:                                      IN:
           ---                                      ---
             STORAGE =        9407.8037               STORAGE =       2.6795E-03
       CONSTANT HEAD =       12944.6934         CONSTANT HEAD =       1.3836E-03
            RECHARGE =         529.4365              RECHARGE =       1.0213E-04

            TOTAL IN =       22881.9316              TOTAL IN =       4.1653E-03

          OUT:                                     OUT:
          ----                                     ----
             STORAGE =        4243.4263               STORAGE =           0.0000
       CONSTANT HEAD =       18639.1211         CONSTANT HEAD =       4.1654E-03
            RECHARGE =           0.0000              RECHARGE =           0.0000

           TOTAL OUT =       22882.5469             TOTAL OUT =       4.1654E-03

            IN - OUT =          -0.6152              IN - OUT =      -1.0384E-07

 PERCENT DISCREPANCY =          -0.00     PERCENT DISCREPANCY =          -0.00






         TIME SUMMARY AT END OF TIME STEP    1 IN STRESS PERIOD   43
                    SECONDS     MINUTES      HOURS       DAYS        YEARS
                    -----------------------------------------------------------
   TIME STEP LENGTH  86400.      1440.0      24.000      1.0000     2.73785E-03
 STRESS PERIOD TIME  86400.      1440.0      24.000      1.0000     2.73785E-03
         TOTAL TIME 5.18400E+06  86400.      1440.0      60.000     0.16427    
1
1
                            STRESS PERIOD NO.   44, LENGTH =   86400.00    
                            -----------------------------------------------

                              NUMBER OF TIME STEPS =     1

                               MULTIPLIER FOR DELT =     1.000

                            INITIAL TIME STEP SIZE =   86400.00    

 REUSING RECH FROM LAST STRESS PERIOD

 CHD NO.   LAYER   ROW   COL    START HEAD        END HEAD         IFACE           
 ----------------------------------------------------------------------------------
      1      4      3      1       109.5           109.5           0.000    
      2      5      3      1       109.5           109.5           0.000    
      3      4      3      2       109.5           109.5           0.000    
      4      5      3      2       109.5           109.5           0.000    
      5      4      3      3       109.5           109.5           0.000    
      6      5      3      3       109.5           109.5           0.000    
      7      4      3      4       109.5           109.5           0.000    
      8      5      3      4       109.5           109.5           0.000    
      9      4      3      5       109.5           109.5           0.000    
     10      5      3      5       109.5           109.5           0.000    
     11      4      3      6       109.5           109.5           0.000    
     12      5      3      6       109.5           109.5           0.000    
     13      4      3      7       109.5           109.5           0.000    
     14      5      3      7       109.5           109.5           0.000    
     15      4      3      8       109.5           109.5           0.000    
     16      5      3      8       109.5           109.5           0.000    
     17      4      2      8       109.5           109.5           0.000    
     18      5      2      8       109.5           109.5           0.000    
     19      4      2      9       109.5           109.5           0.000    
     20      5      2      9       109.5           109.5           0.000    
     21      4      2     10       109.5           109.5           0.000    
     22      5      2     10       109.5           109.5           0.000    
     23      4      2     11       109.5           109.5           0.000    
     24      5      2     11       109.5           109.5           0.000    
     25      4      2     12       109.5           109.5           0.000    
     26      5      2     12       109.5           109.5           0.000    
     27      4      2     13       109.5           109.5           0.000    
     28      5      2     13       109.5           109.5           0.000    
     29      4      2     14       109.5           109.5           0.000    
     30      5      2     14       109.5           109.5           0.000    
     31      4      2     15       109.5           109.5           0.000    
     32      5      2     15       109.5           109.5           0.000    
     33      4      2     16       109.5           109.5           0.000    
     34      5      2     16       109.5           109.5           0.000    
     35      4      2     17       109.5           109.5           0.000    
     36      5      2     17       109.5           109.5           0.000    
     37      4      2     18       109.5           109.5           0.000    
     38      5      2     18       109.5           109.5           0.000    
     39      4      2     19       109.5           109.5           0.000    
     40      5      2     19       109.5           109.5           0.000    
     41      4      2     20       109.5           109.5           0.000    
     42      5      2     20       109.5           109.5           0.000    
     43      4      2     21       109.5           109.5           0.000    
     44      5      2     21       109.5           109.5           0.000    
     45      4      2     22       109.5           109.5           0.000    
     46      5      2     22       109.5           109.5           0.000    
     47      4      2     23       109.5           109.5           0.000    
     48      5      2     23       109.5           109.5           0.000    
     49      4      2     24       109.5           109.5           0.000    
     50      5      2     24       109.5           109.5           0.000    
     51      4      2     25       109.5           109.5           0.000    
     52      5      2     25       109.5           109.5           0.000    
     53      4      2     26       109.5           109.5           0.000    
     54      5      2     26       109.5           109.5           0.000    
     55      4      1     26       109.5           109.5           0.000    
     56      5      1     26       109.5           109.5           0.000    
     57      4      1     27       109.5           109.5           0.000    
     58      5      1     27       109.5           109.5           0.000    
     59      4      1     28       109.5           109.5           0.000    
     60      5      1     28       109.5           109.5           0.000    
     61      4      1     29       109.5           109.5           0.000    
     62      5      1     29       109.5           109.5           0.000    
     63      4      1     30       109.5           109.5           0.000    
     64      5      1     30       109.5           109.5           0.000    
     65      4      1     31       109.5           109.5           0.000    
     66      5      1     31       109.5           109.5           0.000    
     67      4      1     32       109.5           109.5           0.000    
     68      5      1     32       109.5           109.5           0.000    
     69      4      1     33       109.5           109.5           0.000    
     70      5      1     33       109.5           109.5           0.000    
     71      4      1     34       109.5           109.5           0.000    
     72      5      1     34       109.5           109.5           0.000    
     73      4      1     35       109.5           109.5           0.000    
     74      5      1     35       109.5           109.5           0.000    
     75      4     36     35       109.3           109.4           0.000    
     76      5     36     35       109.3           109.4           0.000    
     77      4     35     34       109.3           109.4           0.000    
     78      5     35     34       109.3           109.4           0.000    
     79      4     36     34       109.3           109.4           0.000    
     80      5     36     34       109.3           109.4           0.000    
     81      4     36     33       109.3           109.4           0.000    
     82      5     36     33       109.3           109.4           0.000    
     83      4     36     32       109.3           109.4           0.000    
     84      5     36     32       109.3           109.4           0.000    
     85      4     37     32       109.3           109.4           0.000    
     86      5     37     32       109.3           109.4           0.000    
     87      4     37     31       109.3           109.4           0.000    
     88      5     37     31       109.3           109.4           0.000    
     89      4     38     31       109.3           109.4           0.000    
     90      5     38     31       109.3           109.4           0.000    
     91      4     38     30       109.3           109.4           0.000    
     92      5     38     30       109.3           109.4           0.000    
     93      4     39     30       109.3           109.4           0.000    
     94      5     39     30       109.3           109.4           0.000    
     95      4     39     29       109.3           109.4           0.000    
     96      5     39     29       109.3           109.4           0.000    
     97      4     40     29       109.3           109.4           0.000    
     98      5     40     29       109.3           109.4           0.000    
     99      4     40     28       109.3           109.4           0.000    
    100      5     40     28       109.3           109.4           0.000    
    101      4     40     27       109.3           109.4           0.000    
    102      5     40     27       109.3           109.4           0.000    
    103      4     41     27       109.3           109.4           0.000    
    104      5     41     27       109.3           109.4           0.000    
    105      4     41     26       109.3           109.4           0.000    
    106      5     41     26       109.3           109.4           0.000    
    107      4     41     25       109.3           109.4           0.000    
    108      5     41     25       109.3           109.4           0.000    
    109      4     41     24       109.3           109.4           0.000    
    110      5     41     24       109.3           109.4           0.000    
    111      4     41     23       109.3           109.4           0.000    
    112      5     41     23       109.3           109.4           0.000    
    113      4     41     22       109.3           109.4           0.000    
    114      5     41     22       109.3           109.4           0.000    
    115      4     42     22       109.3           109.4           0.000    
    116      5     42     22       109.3           109.4           0.000    
    117      4     42     21       109.3           109.4           0.000    
    118      5     42     21       109.3           109.4           0.000    
    119      4     42     20       109.3           109.4           0.000    
    120      5     42     20       109.3           109.4           0.000    
    121      4     42     19       109.3           109.4           0.000    
    122      5     42     19       109.3           109.4           0.000    
    123      4     43     18       109.3           109.4           0.000    
    124      5     43     18       109.3           109.4           0.000    
    125      4     42     18       109.3           109.4           0.000    
    126      5     42     18       109.3           109.4           0.000    
    127      4     42     17       109.3           109.4           0.000    
    128      5     42     17       109.3           109.4           0.000    
    129      4     42     16       109.3           109.4           0.000    
    130      5     42     16       109.3           109.4           0.000    
    131      4     42     15       109.3           109.4           0.000    
    132      5     42     15       109.3           109.4           0.000    
    133      4     43     15       109.3           109.4           0.000    
    134      5     43     15       109.3           109.4           0.000    
    135      4     43     14       109.3           109.4           0.000    
    136      5     43     14       109.3           109.4           0.000    
    137      4     43     13       109.3           109.4           0.000    
    138      5     43     13       109.3           109.4           0.000    
    139      4     43     12       109.3           109.4           0.000    
    140      5     43     12       109.3           109.4           0.000    
    141      4     43     11       109.3           109.4           0.000    
    142      5     43     11       109.3           109.4           0.000    
    143      4     43     10       109.3           109.4           0.000    
    144      5     43     10       109.3           109.4           0.000    
    145      4     44     10       109.3           109.4           0.000    
    146      5     44     10       109.3           109.4           0.000    
    147      4     44      9       109.3           109.4           0.000    
    148      5     44      9       109.3           109.4           0.000    
    149      4     44      8       109.3           109.4           0.000    
    150      5     44      8       109.3           109.4           0.000    
    151      4     44      7       109.3           109.4           0.000    
    152      5     44      7       109.3           109.4           0.000    
    153      4     44      6       109.3           109.4           0.000    
    154      5     44      6       109.3           109.4           0.000    
    155      4     44      5       109.3           109.4           0.000    
    156      5     44      5       109.3           109.4           0.000    
    157      4     44      4       109.3           109.4           0.000    
    158      5     44      4       109.3           109.4           0.000    
    159      4     44      3       109.3           109.4           0.000    
    160      5     44      3       109.3           109.4           0.000    
    161      4     45      3       109.3           109.4           0.000    
    162      5     45      3       109.3           109.4           0.000    
    163      4     45      2       109.3           109.4           0.000    
    164      5     45      2       109.3           109.4           0.000    
    165      4     45      1       109.2           109.4           0.000    
    166      5     45      1       109.2           109.4           0.000    


    166 TIME-VARIANT SPECIFIED-HEAD CELLS

 SOLVING FOR HEAD 


     4 CALLS TO PCG ROUTINE FOR TIME STEP   1 IN STRESS PERIOD   44
    73 TOTAL ITERATIONS

 MAXIMUM HEAD CHANGE FOR EACH ITERATION (1 INDICATES THE FIRST INNER ITERATION):

    HEAD CHANGE    HEAD CHANGE    HEAD CHANGE    HEAD CHANGE    HEAD CHANGE 
   LAYER,ROW,COL  LAYER,ROW,COL  LAYER,ROW,COL  LAYER,ROW,COL  LAYER,ROW,COL
 ---------------------------------------------------------------------------
  1  0.3537      0  0.1023      0 -0.1612      0  0.1381      0 -0.8630E-01
   (  5, 43,  5)  (  5, 26,  2)  (  5, 40,  1)  (  5, 36,  1)  (  5, 31,  1)
  0  0.8975E-01  0 -0.6350E-01  0 -0.5669E-01  0  0.4968E-01  0 -0.3215E-01
   (  5, 40,  1)  (  5, 37,  1)  (  5, 39,  1)  (  5, 36,  1)  (  5, 38,  5)
  0  0.2657E-01  0  0.1534E-01  0 -0.1333E-01  0  0.1064E-01  0  0.1096E-01
   (  5, 35,  5)  (  5, 38,  5)  (  5, 27,  2)  (  5, 24,  2)  (  5, 40,  1)
  0 -0.9235E-02  0  0.7052E-02  0 -0.4178E-02  0 -0.3230E-02  0  0.4263E-02
   (  5, 33,  8)  (  5, 32,  9)  (  5, 29,  8)  (  5, 31,  3)  (  5, 33,  7)
  0 -0.2933E-02  0  0.2500E-02  0 -0.1011E-02  0 -0.1420E-02  0  0.8952E-03
   (  5, 32,  8)  (  5, 14,  1)  (  5, 27,  2)  (  5, 13,  1)  (  5, 13,  1)
  0 -0.7502E-03  0  0.8551E-03  0 -0.5299E-03  0 -0.3950E-03  0  0.4038E-03
   (  5, 34,  2)  (  5, 35,  1)  (  5, 35,  7)  (  5, 39,  2)  (  5, 37,  1)
  1  0.6188E-03  0  0.7794E-03  0  0.9373E-03  0  0.1537E-02  0  0.1021E-02
   (  5, 33,  3)  (  5, 39,  6)  (  5, 30,  7)  (  5, 30,  1)  (  5, 35,  1)
  0  0.9931E-03  0  0.8901E-03  0  0.5417E-03  0  0.4750E-03  0  0.3612E-03
   (  5, 33,  6)  (  5, 38,  1)  (  5, 37,  6)  (  5, 30,  9)  (  5, 34,  1)
  0 -0.2704E-03  0  0.1730E-03  0 -0.2625E-03  0 -0.1280E-03  0  0.1151E-03
   (  5, 35, 10)  (  5, 31,  4)  (  5, 38,  9)  (  5, 40,  3)  (  5, 38,  1)
  0 -0.1119E-03  0  0.1049E-03  0  0.8376E-04  0  0.4872E-04  0 -0.3852E-04
   (  5, 35,  4)  (  5, 32,  1)  (  5, 32,  4)  (  5, 33,  4)  (  5, 31,  4)
  0  0.4335E-04  0 -0.2942E-04  0  0.2333E-04  0 -0.2533E-04  0 -0.1715E-04
   (  5, 27,  1)  (  5, 35,  1)  (  5, 37,  1)  (  5, 40,  2)  (  5, 31,  7)
  0 -0.1236E-04  0  0.9685E-05  0 -0.8543E-05  0 -0.6654E-05  0  0.3807E-05
   (  5, 35,  3)  (  5, 33,  1)  (  5, 37,  1)  (  5, 31,  1)  (  5, 27,  1)
  1 -0.3104E-05  0  0.3968E-05  0  0.3659E-05  0 -0.3364E-05  0  0.3404E-05
   (  5, 27,  2)  (  5, 29,  1)  (  5, 40,  2)  (  5, 33,  1)  (  5, 35,  4)
  0 -0.3681E-05  0  0.2187E-05  0 -0.2291E-05  0  0.1712E-05  0 -0.1873E-05
   (  5, 39,  1)  (  5, 36,  1)  (  5, 36,  2)  (  5, 23,  8)  (  5, 40,  1)
  0  0.1710E-05  0  0.7048E-06  1 -0.6384E-06
   (  5, 39,  1)  (  5, 29,  1)  (  5, 31,  3)

 MAXIMUM RESIDUAL FOR EACH ITERATION (1 INDICATES THE FIRST INNER ITERATION):

    RESIDUAL       RESIDUAL       RESIDUAL       RESIDUAL       RESIDUAL    
   LAYER,ROW,COL  LAYER,ROW,COL  LAYER,ROW,COL  LAYER,ROW,COL  LAYER,ROW,COL
 ---------------------------------------------------------------------------
  1 -0.1379E-02  0 -0.1169E-02  0 -0.9428E-03  0 -0.7605E-03  0 -0.6726E-03
   (  4, 44,  2)  (  4, 44,  2)  (  4, 35, 35)  (  4, 35, 35)  (  3, 40, 27)
  0 -0.5637E-03  0 -0.4429E-03  0 -0.3564E-03  0 -0.2931E-03  0 -0.2402E-03
   (  3, 40, 27)  (  3, 40, 27)  (  3, 40, 27)  (  3, 40, 27)  (  4, 35, 35)
  0  0.1758E-03  0  0.1347E-03  0  0.1172E-03  0  0.1003E-03  0  0.7764E-04
   (  4, 43,  4)  (  3, 35, 35)  (  3, 35, 35)  (  3, 35, 35)  (  3, 35, 35)
  0  0.5893E-04  0  0.4739E-04  0  0.3953E-04  0  0.3607E-04  0  0.3013E-04
   (  4, 34, 35)  (  4, 34, 35)  (  4, 34, 35)  (  4, 34, 35)  (  4, 34, 35)
  0  0.2417E-04  0  0.1914E-04  0  0.1810E-04  0  0.1481E-04  0  0.1141E-04
   (  4, 34, 35)  (  4, 34, 35)  (  4, 34, 35)  (  4, 34, 35)  (  4, 34, 35)
  0  0.9579E-05  0  0.7623E-05  0  0.5543E-05  0  0.4460E-05  0  0.3516E-05
   (  4, 34, 35)  (  4, 34, 35)  (  4, 34, 35)  (  4, 34, 35)  (  4, 34, 35)
  1 -0.3972E-05  0 -0.3734E-05  0 -0.3386E-05  0 -0.2585E-05  0 -0.2947E-05
   (  3, 43,  3)  (  3, 43,  3)  (  3, 43,  3)  (  4, 40,  1)  (  4, 40,  1)
  0 -0.2808E-05  0 -0.3064E-05  0 -0.2817E-05  0 -0.2649E-05  0 -0.2240E-05
   (  4, 42,  1)  (  4, 42,  1)  (  4, 42,  1)  (  4, 42,  1)  (  4, 43,  1)
  0 -0.2050E-05  0 -0.2004E-05  0 -0.1719E-05  0 -0.1427E-05  0 -0.1281E-05
   (  4, 44,  1)  (  4, 44,  1)  (  4, 44,  1)  (  4, 44,  1)  (  4, 44,  1)
  0 -0.1131E-05  0 -0.8307E-06  0  0.7681E-06  0  0.6819E-06  0  0.6421E-06
   (  4, 44,  1)  (  4, 44,  1)  (  4, 44,  2)  (  4, 44,  2)  (  4, 44,  2)
  0  0.5748E-06  0  0.4750E-06  0  0.4096E-06  0  0.3044E-06  0  0.1917E-06
   (  4, 44,  2)  (  4, 44,  2)  (  4, 44,  2)  (  4, 44,  2)  (  4, 44,  2)
  0  0.1308E-06  0  0.9845E-07  0 -0.9102E-07  0 -0.8711E-07  0 -0.8525E-07
   (  4, 44,  2)  (  4, 44,  2)  (  4, 43,  2)  (  4, 43,  2)  (  4, 43,  2)
  1 -0.8306E-07  0 -0.7719E-07  0 -0.6924E-07  0 -0.5773E-07  0 -0.4568E-07
   (  4, 43,  2)  (  4, 43,  2)  (  4, 43,  2)  (  4, 43,  2)  (  4, 43,  2)
  0 -0.2685E-07  0  0.2146E-07  0  0.1533E-07  0 -0.1487E-07  0 -0.1296E-07
   (  4, 43,  2)  (  4, 44,  2)  (  4, 44,  2)  (  4, 41,  3)  (  4, 41,  3)
  0 -0.1046E-07  0 -0.9845E-08  1 -0.9598E-08
   (  4, 41,  3)  (  4, 41,  3)  (  4, 41,  3)



 OUTPUT CONTROL FOR STRESS PERIOD   44   TIME STEP    1
    SAVE HEAD FOR ALL LAYERS
    SAVE DRAWDOWN FOR ALL LAYERS
    SAVE BUDGET
    PRINT BUDGET
 UBDSV1 SAVING "         STORAGE" ON UNIT   9 AT TIME STEP  1, STRESS PERIOD  44
 UBDSV2 SAVING "   CONSTANT HEAD" ON UNIT   9 AT TIME STEP  1, STRESS PERIOD  44
 UBDSV1 SAVING "FLOW RIGHT FACE " ON UNIT   9 AT TIME STEP  1, STRESS PERIOD  44
 UBDSV1 SAVING "FLOW FRONT FACE " ON UNIT   9 AT TIME STEP  1, STRESS PERIOD  44
 UBDSV1 SAVING "FLOW LOWER FACE " ON UNIT   9 AT TIME STEP  1, STRESS PERIOD  44
 UBDSV3 SAVING "        RECHARGE" ON UNIT   9 AT TIME STEP  1, STRESS PERIOD  44

 HEAD WILL BE SAVED ON UNIT   37 AT END OF TIME STEP    1, STRESS PERIOD   44

 DRAWDOWN WILL BE SAVED ON UNIT   38 AT END OF TIME STEP    1, STRESS PERIOD   44
1
  VOLUMETRIC BUDGET FOR ENTIRE MODEL AT END OF TIME STEP    1, STRESS PERIOD  44
  ------------------------------------------------------------------------------

     CUMULATIVE VOLUMES      L**3       RATES FOR THIS TIME STEP      L**3/T
     ------------------                 ------------------------

           IN:                                      IN:
           ---                                      ---
             STORAGE =        9407.8037               STORAGE =           0.0000
       CONSTANT HEAD =       13127.7920         CONSTANT HEAD =       2.1192E-03
            RECHARGE =         538.2604              RECHARGE =       1.0213E-04

            TOTAL IN =       23073.8555              TOTAL IN =       2.2213E-03

          OUT:                                     OUT:
          ----                                     ----
             STORAGE =        4399.0889               STORAGE =       1.8016E-03
       CONSTANT HEAD =       18675.3867         CONSTANT HEAD =       4.1973E-04
            RECHARGE =           0.0000              RECHARGE =           0.0000

           TOTAL OUT =       23074.4766             TOTAL OUT =       2.2214E-03

            IN - OUT =          -0.6211              IN - OUT =      -5.5181E-08

 PERCENT DISCREPANCY =          -0.00     PERCENT DISCREPANCY =          -0.00






         TIME SUMMARY AT END OF TIME STEP    1 IN STRESS PERIOD   44
                    SECONDS     MINUTES      HOURS       DAYS        YEARS
                    -----------------------------------------------------------
   TIME STEP LENGTH  86400.      1440.0      24.000      1.0000     2.73785E-03
 STRESS PERIOD TIME  86400.      1440.0      24.000      1.0000     2.73785E-03
         TOTAL TIME 5.27040E+06  87840.      1464.0      61.000     0.16701    
1
1
                            STRESS PERIOD NO.   45, LENGTH =   172800.0    
                            -----------------------------------------------

                              NUMBER OF TIME STEPS =     2

                               MULTIPLIER FOR DELT =     1.000

                            INITIAL TIME STEP SIZE =   86400.00    

 REUSING RECH FROM LAST STRESS PERIOD

 CHD NO.   LAYER   ROW   COL    START HEAD        END HEAD         IFACE           
 ----------------------------------------------------------------------------------
      1      4      3      1       109.5           109.6           0.000    
      2      5      3      1       109.5           109.6           0.000    
      3      4      3      2       109.5           109.6           0.000    
      4      5      3      2       109.5           109.6           0.000    
      5      4      3      3       109.5           109.6           0.000    
      6      5      3      3       109.5           109.6           0.000    
      7      4      3      4       109.5           109.6           0.000    
      8      5      3      4       109.5           109.6           0.000    
      9      4      3      5       109.5           109.6           0.000    
     10      5      3      5       109.5           109.6           0.000    
     11      4      3      6       109.5           109.6           0.000    
     12      5      3      6       109.5           109.6           0.000    
     13      4      3      7       109.5           109.6           0.000    
     14      5      3      7       109.5           109.6           0.000    
     15      4      3      8       109.5           109.6           0.000    
     16      5      3      8       109.5           109.6           0.000    
     17      4      2      8       109.5           109.6           0.000    
     18      5      2      8       109.5           109.6           0.000    
     19      4      2      9       109.5           109.6           0.000    
     20      5      2      9       109.5           109.6           0.000    
     21      4      2     10       109.5           109.6           0.000    
     22      5      2     10       109.5           109.6           0.000    
     23      4      2     11       109.5           109.6           0.000    
     24      5      2     11       109.5           109.6           0.000    
     25      4      2     12       109.5           109.6           0.000    
     26      5      2     12       109.5           109.6           0.000    
     27      4      2     13       109.5           109.6           0.000    
     28      5      2     13       109.5           109.6           0.000    
     29      4      2     14       109.5           109.6           0.000    
     30      5      2     14       109.5           109.6           0.000    
     31      4      2     15       109.5           109.6           0.000    
     32      5      2     15       109.5           109.6           0.000    
     33      4      2     16       109.5           109.6           0.000    
     34      5      2     16       109.5           109.6           0.000    
     35      4      2     17       109.5           109.6           0.000    
     36      5      2     17       109.5           109.6           0.000    
     37      4      2     18       109.5           109.6           0.000    
     38      5      2     18       109.5           109.6           0.000    
     39      4      2     19       109.5           109.6           0.000    
     40      5      2     19       109.5           109.6           0.000    
     41      4      2     20       109.5           109.6           0.000    
     42      5      2     20       109.5           109.6           0.000    
     43      4      2     21       109.5           109.6           0.000    
     44      5      2     21       109.5           109.6           0.000    
     45      4      2     22       109.5           109.6           0.000    
     46      5      2     22       109.5           109.6           0.000    
     47      4      2     23       109.5           109.6           0.000    
     48      5      2     23       109.5           109.6           0.000    
     49      4      2     24       109.5           109.6           0.000    
     50      5      2     24       109.5           109.6           0.000    
     51      4      2     25       109.5           109.6           0.000    
     52      5      2     25       109.5           109.6           0.000    
     53      4      2     26       109.5           109.6           0.000    
     54      5      2     26       109.5           109.6           0.000    
     55      4      1     26       109.5           109.6           0.000    
     56      5      1     26       109.5           109.6           0.000    
     57      4      1     27       109.5           109.6           0.000    
     58      5      1     27       109.5           109.6           0.000    
     59      4      1     28       109.5           109.6           0.000    
     60      5      1     28       109.5           109.6           0.000    
     61      4      1     29       109.5           109.6           0.000    
     62      5      1     29       109.5           109.6           0.000    
     63      4      1     30       109.5           109.6           0.000    
     64      5      1     30       109.5           109.6           0.000    
     65      4      1     31       109.5           109.6           0.000    
     66      5      1     31       109.5           109.6           0.000    
     67      4      1     32       109.5           109.6           0.000    
     68      5      1     32       109.5           109.6           0.000    
     69      4      1     33       109.5           109.6           0.000    
     70      5      1     33       109.5           109.6           0.000    
     71      4      1     34       109.5           109.6           0.000    
     72      5      1     34       109.5           109.6           0.000    
     73      4      1     35       109.5           109.6           0.000    
     74      5      1     35       109.5           109.6           0.000    
     75      4     36     35       109.4           109.4           0.000    
     76      5     36     35       109.4           109.4           0.000    
     77      4     35     34       109.4           109.4           0.000    
     78      5     35     34       109.4           109.4           0.000    
     79      4     36     34       109.4           109.4           0.000    
     80      5     36     34       109.4           109.4           0.000    
     81      4     36     33       109.4           109.4           0.000    
     82      5     36     33       109.4           109.4           0.000    
     83      4     36     32       109.4           109.4           0.000    
     84      5     36     32       109.4           109.4           0.000    
     85      4     37     32       109.4           109.4           0.000    
     86      5     37     32       109.4           109.4           0.000    
     87      4     37     31       109.4           109.3           0.000    
     88      5     37     31       109.4           109.3           0.000    
     89      4     38     31       109.4           109.3           0.000    
     90      5     38     31       109.4           109.3           0.000    
     91      4     38     30       109.4           109.3           0.000    
     92      5     38     30       109.4           109.3           0.000    
     93      4     39     30       109.4           109.3           0.000    
     94      5     39     30       109.4           109.3           0.000    
     95      4     39     29       109.4           109.3           0.000    
     96      5     39     29       109.4           109.3           0.000    
     97      4     40     29       109.4           109.3           0.000    
     98      5     40     29       109.4           109.3           0.000    
     99      4     40     28       109.4           109.3           0.000    
    100      5     40     28       109.4           109.3           0.000    
    101      4     40     27       109.4           109.3           0.000    
    102      5     40     27       109.4           109.3           0.000    
    103      4     41     27       109.4           109.3           0.000    
    104      5     41     27       109.4           109.3           0.000    
    105      4     41     26       109.4           109.3           0.000    
    106      5     41     26       109.4           109.3           0.000    
    107      4     41     25       109.4           109.3           0.000    
    108      5     41     25       109.4           109.3           0.000    
    109      4     41     24       109.4           109.3           0.000    
    110      5     41     24       109.4           109.3           0.000    
    111      4     41     23       109.4           109.3           0.000    
    112      5     41     23       109.4           109.3           0.000    
    113      4     41     22       109.4           109.3           0.000    
    114      5     41     22       109.4           109.3           0.000    
    115      4     42     22       109.4           109.3           0.000    
    116      5     42     22       109.4           109.3           0.000    
    117      4     42     21       109.4           109.3           0.000    
    118      5     42     21       109.4           109.3           0.000    
    119      4     42     20       109.4           109.3           0.000    
    120      5     42     20       109.4           109.3           0.000    
    121      4     42     19       109.4           109.3           0.000    
    122      5     42     19       109.4           109.3           0.000    
    123      4     43     18       109.4           109.3           0.000    
    124      5     43     18       109.4           109.3           0.000    
    125      4     42     18       109.4           109.3           0.000    
    126      5     42     18       109.4           109.3           0.000    
    127      4     42     17       109.4           109.3           0.000    
    128      5     42     17       109.4           109.3           0.000    
    129      4     42     16       109.4           109.3           0.000    
    130      5     42     16       109.4           109.3           0.000    
    131      4     42     15       109.4           109.3           0.000    
    132      5     42     15       109.4           109.3           0.000    
    133      4     43     15       109.4           109.3           0.000    
    134      5     43     15       109.4           109.3           0.000    
    135      4     43     14       109.4           109.3           0.000    
    136      5     43     14       109.4           109.3           0.000    
    137      4     43     13       109.4           109.3           0.000    
    138      5     43     13       109.4           109.3           0.000    
    139      4     43     12       109.4           109.3           0.000    
    140      5     43     12       109.4           109.3           0.000    
    141      4     43     11       109.4           109.3           0.000    
    142      5     43     11       109.4           109.3           0.000    
    143      4     43     10       109.4           109.3           0.000    
    144      5     43     10       109.4           109.3           0.000    
    145      4     44     10       109.4           109.3           0.000    
    146      5     44     10       109.4           109.3           0.000    
    147      4     44      9       109.4           109.3           0.000    
    148      5     44      9       109.4           109.3           0.000    
    149      4     44      8       109.4           109.3           0.000    
    150      5     44      8       109.4           109.3           0.000    
    151      4     44      7       109.4           109.3           0.000    
    152      5     44      7       109.4           109.3           0.000    
    153      4     44      6       109.4           109.3           0.000    
    154      5     44      6       109.4           109.3           0.000    
    155      4     44      5       109.4           109.3           0.000    
    156      5     44      5       109.4           109.3           0.000    
    157      4     44      4       109.4           109.3           0.000    
    158      5     44      4       109.4           109.3           0.000    
    159      4     44      3       109.4           109.3           0.000    
    160      5     44      3       109.4           109.3           0.000    
    161      4     45      3       109.4           109.3           0.000    
    162      5     45      3       109.4           109.3           0.000    
    163      4     45      2       109.4           109.3           0.000    
    164      5     45      2       109.4           109.3           0.000    
    165      4     45      1       109.4           109.3           0.000    
    166      5     45      1       109.4           109.3           0.000    


    166 TIME-VARIANT SPECIFIED-HEAD CELLS

 SOLVING FOR HEAD 


     3 CALLS TO PCG ROUTINE FOR TIME STEP   1 IN STRESS PERIOD   45
    59 TOTAL ITERATIONS

 MAXIMUM HEAD CHANGE FOR EACH ITERATION (1 INDICATES THE FIRST INNER ITERATION):

    HEAD CHANGE    HEAD CHANGE    HEAD CHANGE    HEAD CHANGE    HEAD CHANGE 
   LAYER,ROW,COL  LAYER,ROW,COL  LAYER,ROW,COL  LAYER,ROW,COL  LAYER,ROW,COL
 ---------------------------------------------------------------------------
  1 -0.8171E-01  0  0.3831E-01  0  0.3059E-01  0 -0.2681E-01  0 -0.2788E-01
   (  5, 43,  5)  (  5, 38,  2)  (  5, 40,  2)  (  5, 34,  2)  (  5, 37,  1)
  0  0.1696E-01  0 -0.1760E-01  0  0.1828E-01  0  0.1237E-01  0  0.7787E-02
   (  5, 35,  2)  (  5, 40,  1)  (  5, 37,  1)  (  5, 36,  6)  (  5, 40,  1)
  0 -0.6827E-02  0  0.6655E-02  0 -0.4457E-02  0 -0.2137E-02  0  0.4539E-02
   (  5, 38,  1)  (  5, 28, 10)  (  5, 35,  9)  (  5, 29,  2)  (  5, 33,  9)
  0 -0.2318E-02  0 -0.2525E-02  0  0.2378E-02  0 -0.1420E-02  0  0.1433E-02
   (  5, 35,  2)  (  5, 30,  8)  (  5, 35,  8)  (  5, 34,  9)  (  5, 36,  7)
  0  0.8834E-03  0 -0.7456E-03  0 -0.6219E-03  0 -0.2999E-03  0  0.5115E-03
   (  5, 35,  1)  (  5, 37,  1)  (  5, 14,  1)  (  5, 30,  2)  (  5, 41,  2)
  0 -0.4363E-03  0  0.3553E-03  0 -0.1732E-03  0  0.2372E-03  0  0.1352E-03
   (  5, 39,  1)  (  5, 37,  1)  (  5, 34,  1)  (  5, 33,  2)  (  5, 14,  2)
  1 -0.1167E-03  0 -0.1024E-03  0  0.5862E-04  0 -0.5342E-04  0 -0.7288E-04
   (  5, 13,  1)  (  5, 34,  3)  (  5, 32,  3)  (  5, 29,  4)  (  5, 37,  1)
  0  0.5106E-04  0  0.4656E-04  0 -0.5229E-04  0  0.4492E-04  0 -0.3261E-04
   (  5, 39,  2)  (  5, 38,  3)  (  5, 39,  1)  (  5, 13,  1)  (  5, 39,  1)
  0  0.2719E-04  0 -0.1676E-04  0  0.1369E-04  0 -0.1103E-04  0  0.1100E-04
   (  5, 37,  1)  (  5, 39,  2)  (  5, 32,  4)  (  5, 29,  1)  (  5, 30,  7)
  0 -0.7630E-05  0 -0.5483E-05  0  0.6967E-05  0 -0.6462E-05  0 -0.3378E-05
   (  5, 34,  9)  (  5, 35,  2)  (  5, 39,  1)  (  5, 41,  2)  (  5, 25, 11)
  0  0.2789E-05  0  0.1879E-05  0 -0.2139E-05  0 -0.1819E-05  0  0.1950E-05
   (  5, 28, 11)  (  5, 34,  1)  (  5, 33,  4)  (  5, 36,  2)  (  5, 40,  1)
  0  0.1308E-05  0 -0.1074E-05  0  0.7447E-06  1  0.4583E-06
   (  5, 37,  6)  (  5, 39,  7)  (  5, 43,  7)  (  5, 37,  1)

 MAXIMUM RESIDUAL FOR EACH ITERATION (1 INDICATES THE FIRST INNER ITERATION):

    RESIDUAL       RESIDUAL       RESIDUAL       RESIDUAL       RESIDUAL    
   LAYER,ROW,COL  LAYER,ROW,COL  LAYER,ROW,COL  LAYER,ROW,COL  LAYER,ROW,COL
 ---------------------------------------------------------------------------
  1  0.3534E-03  0  0.2775E-03  0  0.2195E-03  0  0.1911E-03  0  0.1622E-03
   (  4, 44,  2)  (  4, 44,  2)  (  4, 44,  2)  (  3, 40, 27)  (  3, 40, 27)
  0  0.1413E-03  0  0.1199E-03  0  0.9613E-04  0  0.7566E-04  0 -0.6165E-04
   (  3, 40, 27)  (  3, 40, 27)  (  3, 40, 27)  (  3, 40, 27)  (  4, 43,  4)
  0 -0.4955E-04  0 -0.3961E-04  0 -0.3085E-04  0 -0.2909E-04  0 -0.2386E-04
   (  4, 43,  4)  (  4, 43,  4)  (  4, 43,  4)  (  4, 43,  4)  (  4, 44,  2)
  0 -0.2199E-04  0 -0.1897E-04  0 -0.1455E-04  0 -0.1140E-04  0 -0.8502E-05
   (  4, 44,  2)  (  4, 44,  2)  (  4, 44,  2)  (  4, 44,  2)  (  4, 44,  2)
  0 -0.7686E-05  0 -0.6582E-05  0 -0.5289E-05  0 -0.5111E-05  0 -0.4132E-05
   (  4, 34, 35)  (  4, 34, 35)  (  4, 34, 35)  (  4, 34, 35)  (  4, 34, 35)
  0 -0.3418E-05  0 -0.3025E-05  0 -0.2781E-05  0 -0.2188E-05  0 -0.1604E-05
   (  4, 34, 35)  (  4, 34, 35)  (  4, 34, 35)  (  4, 34, 35)  (  4, 34, 35)
  1 -0.1527E-05  0 -0.1317E-05  0 -0.1261E-05  0 -0.1150E-05  0 -0.1003E-05
   (  4, 34, 35)  (  4, 34, 35)  (  4, 34, 35)  (  4, 34, 35)  (  4, 34, 35)
  0 -0.8414E-06  0 -0.7274E-06  0 -0.5649E-06  0 -0.4011E-06  0 -0.3045E-06
   (  4, 34, 35)  (  4, 34, 35)  (  4, 34, 35)  (  4, 34, 35)  (  4, 34, 35)
  0 -0.2124E-06  0  0.1459E-06  0  0.1306E-06  0  0.1143E-06  0  0.9265E-07
   (  4, 34, 35)  (  4, 35, 35)  (  4, 35, 35)  (  4, 35, 35)  (  4, 35, 35)
  0  0.7281E-07  0  0.6308E-07  0  0.5277E-07  0  0.3955E-07  0  0.2979E-07
   (  4, 35, 35)  (  4, 35, 35)  (  4, 35, 35)  (  4, 35, 35)  (  4, 35, 35)
  0  0.2147E-07  0  0.1892E-07  0  0.1503E-07  0  0.1270E-07  0  0.9987E-08
   (  4, 35, 35)  (  4, 35, 35)  (  4, 35, 35)  (  4, 35, 35)  (  4, 35, 35)
  0  0.7500E-08  0  0.5723E-08  0  0.4185E-08  1  0.4059E-08
   (  3, 41, 22)  (  3, 41, 22)  (  4, 44,  2)  (  4, 44,  2)



 OUTPUT CONTROL FOR STRESS PERIOD   45   TIME STEP    1
    SAVE HEAD FOR ALL LAYERS
    SAVE DRAWDOWN FOR ALL LAYERS
    SAVE BUDGET
    PRINT BUDGET
 UBDSV1 SAVING "         STORAGE" ON UNIT   9 AT TIME STEP  1, STRESS PERIOD  45
 UBDSV2 SAVING "   CONSTANT HEAD" ON UNIT   9 AT TIME STEP  1, STRESS PERIOD  45
 UBDSV1 SAVING "FLOW RIGHT FACE " ON UNIT   9 AT TIME STEP  1, STRESS PERIOD  45
 UBDSV1 SAVING "FLOW FRONT FACE " ON UNIT   9 AT TIME STEP  1, STRESS PERIOD  45
 UBDSV1 SAVING "FLOW LOWER FACE " ON UNIT   9 AT TIME STEP  1, STRESS PERIOD  45
 UBDSV3 SAVING "        RECHARGE" ON UNIT   9 AT TIME STEP  1, STRESS PERIOD  45

 HEAD WILL BE SAVED ON UNIT   37 AT END OF TIME STEP    1, STRESS PERIOD   45

 DRAWDOWN WILL BE SAVED ON UNIT   38 AT END OF TIME STEP    1, STRESS PERIOD   45
1
  VOLUMETRIC BUDGET FOR ENTIRE MODEL AT END OF TIME STEP    1, STRESS PERIOD  45
  ------------------------------------------------------------------------------

     CUMULATIVE VOLUMES      L**3       RATES FOR THIS TIME STEP      L**3/T
     ------------------                 ------------------------

           IN:                                      IN:
           ---                                      ---
             STORAGE =        9415.8965               STORAGE =       9.3667E-05
       CONSTANT HEAD =       13306.5430         CONSTANT HEAD =       2.0689E-03
            RECHARGE =         547.0843              RECHARGE =       1.0213E-04

            TOTAL IN =       23269.5234              TOTAL IN =       2.2647E-03

          OUT:                                     OUT:
          ----                                     ----
             STORAGE =        4425.4097               STORAGE =       3.0464E-04
       CONSTANT HEAD =       18844.7441         CONSTANT HEAD =       1.9601E-03
            RECHARGE =           0.0000              RECHARGE =           0.0000

           TOTAL OUT =       23270.1543             TOTAL OUT =       2.2648E-03

            IN - OUT =          -0.6309              IN - OUT =      -1.1898E-07

 PERCENT DISCREPANCY =          -0.00     PERCENT DISCREPANCY =          -0.01






         TIME SUMMARY AT END OF TIME STEP    1 IN STRESS PERIOD   45
                    SECONDS     MINUTES      HOURS       DAYS        YEARS
                    -----------------------------------------------------------
   TIME STEP LENGTH  86400.      1440.0      24.000      1.0000     2.73785E-03
 STRESS PERIOD TIME  86400.      1440.0      24.000      1.0000     2.73785E-03
         TOTAL TIME 5.35680E+06  89280.      1488.0      62.000     0.16975    
1

 SOLVING FOR HEAD 
     3 CALLS TO PCG ROUTINE FOR TIME STEP   2 IN STRESS PERIOD   45
    59 TOTAL ITERATIONS

 MAXIMUM HEAD CHANGE FOR EACH ITERATION (1 INDICATES THE FIRST INNER ITERATION):

    HEAD CHANGE    HEAD CHANGE    HEAD CHANGE    HEAD CHANGE    HEAD CHANGE 
   LAYER,ROW,COL  LAYER,ROW,COL  LAYER,ROW,COL  LAYER,ROW,COL  LAYER,ROW,COL
 ---------------------------------------------------------------------------
  1 -0.8266E-01  0  0.4688E-01  0 -0.2662E-01  0  0.2236E-01  0 -0.3140E-01
   (  5, 43,  5)  (  5, 35,  1)  (  5, 31,  2)  (  5, 41,  2)  (  5, 37,  1)
  0  0.1548E-01  0 -0.1968E-01  0  0.2245E-01  0  0.1290E-01  0  0.1023E-01
   (  5, 35,  2)  (  5, 40,  1)  (  5, 37,  1)  (  5, 37,  6)  (  5, 40,  1)
  0  0.8029E-02  0 -0.6966E-02  0 -0.2959E-02  0  0.5392E-02  0 -0.4681E-02
   (  5, 35,  9)  (  5, 33,  9)  (  5, 31,  2)  (  5, 30,  8)  (  5, 36,  8)
  0  0.2793E-02  0 -0.1721E-02  0  0.2224E-02  0  0.1570E-02  0  0.1433E-02
   (  5, 34,  9)  (  5, 35,  1)  (  5, 36,  4)  (  5, 30, 10)  (  5, 38,  4)
  0 -0.9661E-03  0  0.7799E-03  0 -0.4302E-03  0 -0.6169E-03  0  0.5867E-03
   (  5, 37,  1)  (  5, 14,  1)  (  5, 30,  2)  (  5, 14,  1)  (  5, 13,  1)
  0  0.4215E-03  0 -0.2614E-03  0  0.1832E-03  0 -0.2010E-03  0  0.1088E-03
   (  5, 37,  1)  (  5, 40,  2)  (  5, 38,  1)  (  5, 36,  1)  (  5, 34,  2)
  1  0.8555E-04  0 -0.7632E-04  0  0.7129E-04  0 -0.1359E-03  0  0.1342E-03
   (  5, 28,  3)  (  5, 26,  4)  (  5, 32,  3)  (  5, 37,  1)  (  5, 39,  2)
  0 -0.8391E-04  0  0.5101E-04  0  0.4662E-04  0  0.5544E-04  0 -0.4275E-04
   (  5, 37,  1)  (  5, 25,  7)  (  5, 35,  3)  (  5, 38,  1)  (  5, 39,  1)
  0 -0.2425E-04  0  0.1572E-04  0  0.2843E-04  0  0.1860E-04  0  0.1159E-04
   (  5, 36,  7)  (  5, 33,  4)  (  5, 41,  2)  (  5, 13,  1)  (  5, 39,  5)
  0 -0.8621E-05  0 -0.1201E-04  0  0.7640E-05  0  0.5544E-05  0 -0.4494E-05
   (  5, 35,  3)  (  5, 32,  9)  (  5, 37,  4)  (  5, 34, 10)  (  5, 36,  3)
  0  0.2569E-05  0  0.2679E-05  0  0.3113E-05  0 -0.2045E-05  0  0.1995E-05
   (  5, 34,  4)  (  5, 36,  1)  (  5, 33,  6)  (  5, 35,  6)  (  5, 40,  1)
  0 -0.1746E-05  0  0.1356E-05  0 -0.8642E-06  1  0.6087E-06
   (  5, 42,  6)  (  5, 37,  1)  (  5, 34,  3)  (  5, 34,  3)

 MAXIMUM RESIDUAL FOR EACH ITERATION (1 INDICATES THE FIRST INNER ITERATION):

    RESIDUAL       RESIDUAL       RESIDUAL       RESIDUAL       RESIDUAL    
   LAYER,ROW,COL  LAYER,ROW,COL  LAYER,ROW,COL  LAYER,ROW,COL  LAYER,ROW,COL
 ---------------------------------------------------------------------------
  1  0.3694E-03  0  0.2775E-03  0  0.2330E-03  0  0.2098E-03  0  0.1741E-03
   (  4, 44,  2)  (  4, 44,  2)  (  4, 35, 35)  (  4, 35, 35)  (  4, 35, 35)
  0  0.1494E-03  0  0.1253E-03  0  0.9764E-04  0  0.7676E-04  0 -0.6070E-04
   (  3, 40, 27)  (  3, 40, 27)  (  3, 40, 27)  (  3, 40, 27)  (  4, 43,  4)
  0 -0.4972E-04  0 -0.4020E-04  0 -0.3823E-04  0 -0.3018E-04  0 -0.2309E-04
   (  4, 43,  4)  (  4, 43,  4)  (  4, 43,  4)  (  4, 43,  4)  (  4, 44,  2)
  0 -0.1959E-04  0 -0.1803E-04  0 -0.1503E-04  0 -0.1217E-04  0 -0.9511E-05
   (  4, 44,  2)  (  4, 44,  2)  (  4, 44,  2)  (  4, 44,  2)  (  4, 44,  2)
  0 -0.8412E-05  0 -0.6926E-05  0 -0.6651E-05  0 -0.5297E-05  0 -0.4128E-05
   (  4, 34, 35)  (  4, 34, 35)  (  4, 34, 35)  (  4, 34, 35)  (  4, 34, 35)
  0 -0.3244E-05  0 -0.2877E-05  0 -0.2157E-05  0 -0.1703E-05  0 -0.1503E-05
   (  4, 34, 35)  (  4, 34, 35)  (  4, 34, 35)  (  4, 34, 35)  (  4, 34, 35)
  1 -0.1461E-05  0 -0.1406E-05  0 -0.1370E-05  0 -0.1118E-05  0 -0.9845E-06
   (  4, 34, 35)  (  4, 34, 35)  (  4, 34, 35)  (  4, 34, 35)  (  4, 34, 35)
  0 -0.7665E-06  0 -0.6459E-06  0 -0.4651E-06  0 -0.3546E-06  0 -0.2421E-06
   (  4, 34, 35)  (  4, 34, 35)  (  4, 34, 35)  (  4, 34, 35)  (  4, 34, 35)
  0 -0.2097E-06  0 -0.2039E-06  0 -0.1839E-06  0 -0.1421E-06  0 -0.1123E-06
   (  4, 43,  1)  (  4, 43,  1)  (  4, 43,  1)  (  4, 43,  1)  (  4, 43,  1)
  0 -0.9980E-07  0 -0.7466E-07  0 -0.4806E-07  0  0.3406E-07  0  0.2801E-07
   (  4, 43,  1)  (  4, 43,  1)  (  4, 43,  1)  (  4, 35, 35)  (  4, 44,  2)
  0  0.2697E-07  0  0.2562E-07  0  0.2207E-07  0  0.1872E-07  0  0.1444E-07
   (  4, 44,  2)  (  4, 44,  2)  (  4, 44,  2)  (  4, 44,  2)  (  4, 44,  2)
  0  0.1123E-07  0  0.9727E-08  0  0.8386E-08  1  0.8390E-08
   (  4, 44,  2)  (  4, 44,  2)  (  4, 44,  2)  (  4, 44,  2)



 OUTPUT CONTROL FOR STRESS PERIOD   45   TIME STEP    2
    SAVE HEAD FOR ALL LAYERS
    SAVE DRAWDOWN FOR ALL LAYERS
    SAVE BUDGET
    PRINT BUDGET
 UBDSV1 SAVING "         STORAGE" ON UNIT   9 AT TIME STEP  2, STRESS PERIOD  45
 UBDSV2 SAVING "   CONSTANT HEAD" ON UNIT   9 AT TIME STEP  2, STRESS PERIOD  45
 UBDSV1 SAVING "FLOW RIGHT FACE " ON UNIT   9 AT TIME STEP  2, STRESS PERIOD  45
 UBDSV1 SAVING "FLOW FRONT FACE " ON UNIT   9 AT TIME STEP  2, STRESS PERIOD  45
 UBDSV1 SAVING "FLOW LOWER FACE " ON UNIT   9 AT TIME STEP  2, STRESS PERIOD  45
 UBDSV3 SAVING "        RECHARGE" ON UNIT   9 AT TIME STEP  2, STRESS PERIOD  45

 HEAD WILL BE SAVED ON UNIT   37 AT END OF TIME STEP    2, STRESS PERIOD   45

 DRAWDOWN WILL BE SAVED ON UNIT   38 AT END OF TIME STEP    2, STRESS PERIOD   45
1
  VOLUMETRIC BUDGET FOR ENTIRE MODEL AT END OF TIME STEP    2, STRESS PERIOD  45
  ------------------------------------------------------------------------------

     CUMULATIVE VOLUMES      L**3       RATES FOR THIS TIME STEP      L**3/T
     ------------------                 ------------------------

           IN:                                      IN:
           ---                                      ---
             STORAGE =        9440.9316               STORAGE =       2.8976E-04
       CONSTANT HEAD =       13509.9355         CONSTANT HEAD =       2.3541E-03
            RECHARGE =         555.9082              RECHARGE =       1.0213E-04

            TOTAL IN =       23506.7754              TOTAL IN =       2.7460E-03

          OUT:                                     OUT:
          ----                                     ----
             STORAGE =        4437.5396               STORAGE =       1.4039E-04
       CONSTANT HEAD =       19069.8750         CONSTANT HEAD =       2.6057E-03
            RECHARGE =           0.0000              RECHARGE =           0.0000

           TOTAL OUT =       23507.4141             TOTAL OUT =       2.7461E-03

            IN - OUT =          -0.6387              IN - OUT =      -9.6159E-08

 PERCENT DISCREPANCY =          -0.00     PERCENT DISCREPANCY =          -0.00






         TIME SUMMARY AT END OF TIME STEP    2 IN STRESS PERIOD   45
                    SECONDS     MINUTES      HOURS       DAYS        YEARS
                    -----------------------------------------------------------
   TIME STEP LENGTH  86400.      1440.0      24.000      1.0000     2.73785E-03
 STRESS PERIOD TIME 1.72800E+05  2880.0      48.000      2.0000     5.47570E-03
         TOTAL TIME 5.44320E+06  90720.      1512.0      63.000     0.17248    
1
1
                            STRESS PERIOD NO.   46, LENGTH =   86400.00    
                            -----------------------------------------------

                              NUMBER OF TIME STEPS =     1

                               MULTIPLIER FOR DELT =     1.000

                            INITIAL TIME STEP SIZE =   86400.00    

 REUSING RECH FROM LAST STRESS PERIOD

 CHD NO.   LAYER   ROW   COL    START HEAD        END HEAD         IFACE           
 ----------------------------------------------------------------------------------
      1      4      3      1       109.6           109.6           0.000    
      2      5      3      1       109.6           109.6           0.000    
      3      4      3      2       109.6           109.6           0.000    
      4      5      3      2       109.6           109.6           0.000    
      5      4      3      3       109.6           109.6           0.000    
      6      5      3      3       109.6           109.6           0.000    
      7      4      3      4       109.6           109.6           0.000    
      8      5      3      4       109.6           109.6           0.000    
      9      4      3      5       109.6           109.6           0.000    
     10      5      3      5       109.6           109.6           0.000    
     11      4      3      6       109.6           109.6           0.000    
     12      5      3      6       109.6           109.6           0.000    
     13      4      3      7       109.6           109.6           0.000    
     14      5      3      7       109.6           109.6           0.000    
     15      4      3      8       109.6           109.6           0.000    
     16      5      3      8       109.6           109.6           0.000    
     17      4      2      8       109.6           109.6           0.000    
     18      5      2      8       109.6           109.6           0.000    
     19      4      2      9       109.6           109.6           0.000    
     20      5      2      9       109.6           109.6           0.000    
     21      4      2     10       109.6           109.6           0.000    
     22      5      2     10       109.6           109.6           0.000    
     23      4      2     11       109.6           109.6           0.000    
     24      5      2     11       109.6           109.6           0.000    
     25      4      2     12       109.6           109.6           0.000    
     26      5      2     12       109.6           109.6           0.000    
     27      4      2     13       109.6           109.6           0.000    
     28      5      2     13       109.6           109.6           0.000    
     29      4      2     14       109.6           109.6           0.000    
     30      5      2     14       109.6           109.6           0.000    
     31      4      2     15       109.6           109.6           0.000    
     32      5      2     15       109.6           109.6           0.000    
     33      4      2     16       109.6           109.6           0.000    
     34      5      2     16       109.6           109.6           0.000    
     35      4      2     17       109.6           109.6           0.000    
     36      5      2     17       109.6           109.6           0.000    
     37      4      2     18       109.6           109.6           0.000    
     38      5      2     18       109.6           109.6           0.000    
     39      4      2     19       109.6           109.6           0.000    
     40      5      2     19       109.6           109.6           0.000    
     41      4      2     20       109.6           109.6           0.000    
     42      5      2     20       109.6           109.6           0.000    
     43      4      2     21       109.6           109.6           0.000    
     44      5      2     21       109.6           109.6           0.000    
     45      4      2     22       109.6           109.6           0.000    
     46      5      2     22       109.6           109.6           0.000    
     47      4      2     23       109.6           109.6           0.000    
     48      5      2     23       109.6           109.6           0.000    
     49      4      2     24       109.6           109.6           0.000    
     50      5      2     24       109.6           109.6           0.000    
     51      4      2     25       109.6           109.6           0.000    
     52      5      2     25       109.6           109.6           0.000    
     53      4      2     26       109.6           109.6           0.000    
     54      5      2     26       109.6           109.6           0.000    
     55      4      1     26       109.6           109.6           0.000    
     56      5      1     26       109.6           109.6           0.000    
     57      4      1     27       109.6           109.6           0.000    
     58      5      1     27       109.6           109.6           0.000    
     59      4      1     28       109.6           109.6           0.000    
     60      5      1     28       109.6           109.6           0.000    
     61      4      1     29       109.6           109.6           0.000    
     62      5      1     29       109.6           109.6           0.000    
     63      4      1     30       109.6           109.6           0.000    
     64      5      1     30       109.6           109.6           0.000    
     65      4      1     31       109.6           109.6           0.000    
     66      5      1     31       109.6           109.6           0.000    
     67      4      1     32       109.6           109.6           0.000    
     68      5      1     32       109.6           109.6           0.000    
     69      4      1     33       109.6           109.6           0.000    
     70      5      1     33       109.6           109.6           0.000    
     71      4      1     34       109.6           109.6           0.000    
     72      5      1     34       109.6           109.6           0.000    
     73      4      1     35       109.6           109.6           0.000    
     74      5      1     35       109.6           109.6           0.000    
     75      4     36     35       109.4           109.5           0.000    
     76      5     36     35       109.4           109.5           0.000    
     77      4     35     34       109.4           109.5           0.000    
     78      5     35     34       109.4           109.5           0.000    
     79      4     36     34       109.4           109.5           0.000    
     80      5     36     34       109.4           109.5           0.000    
     81      4     36     33       109.4           109.5           0.000    
     82      5     36     33       109.4           109.5           0.000    
     83      4     36     32       109.4           109.5           0.000    
     84      5     36     32       109.4           109.5           0.000    
     85      4     37     32       109.4           109.5           0.000    
     86      5     37     32       109.4           109.5           0.000    
     87      4     37     31       109.3           109.5           0.000    
     88      5     37     31       109.3           109.5           0.000    
     89      4     38     31       109.3           109.5           0.000    
     90      5     38     31       109.3           109.5           0.000    
     91      4     38     30       109.3           109.5           0.000    
     92      5     38     30       109.3           109.5           0.000    
     93      4     39     30       109.3           109.5           0.000    
     94      5     39     30       109.3           109.5           0.000    
     95      4     39     29       109.3           109.5           0.000    
     96      5     39     29       109.3           109.5           0.000    
     97      4     40     29       109.3           109.5           0.000    
     98      5     40     29       109.3           109.5           0.000    
     99      4     40     28       109.3           109.5           0.000    
    100      5     40     28       109.3           109.5           0.000    
    101      4     40     27       109.3           109.5           0.000    
    102      5     40     27       109.3           109.5           0.000    
    103      4     41     27       109.3           109.5           0.000    
    104      5     41     27       109.3           109.5           0.000    
    105      4     41     26       109.3           109.5           0.000    
    106      5     41     26       109.3           109.5           0.000    
    107      4     41     25       109.3           109.5           0.000    
    108      5     41     25       109.3           109.5           0.000    
    109      4     41     24       109.3           109.5           0.000    
    110      5     41     24       109.3           109.5           0.000    
    111      4     41     23       109.3           109.5           0.000    
    112      5     41     23       109.3           109.5           0.000    
    113      4     41     22       109.3           109.5           0.000    
    114      5     41     22       109.3           109.5           0.000    
    115      4     42     22       109.3           109.5           0.000    
    116      5     42     22       109.3           109.5           0.000    
    117      4     42     21       109.3           109.5           0.000    
    118      5     42     21       109.3           109.5           0.000    
    119      4     42     20       109.3           109.5           0.000    
    120      5     42     20       109.3           109.5           0.000    
    121      4     42     19       109.3           109.5           0.000    
    122      5     42     19       109.3           109.5           0.000    
    123      4     43     18       109.3           109.5           0.000    
    124      5     43     18       109.3           109.5           0.000    
    125      4     42     18       109.3           109.5           0.000    
    126      5     42     18       109.3           109.5           0.000    
    127      4     42     17       109.3           109.5           0.000    
    128      5     42     17       109.3           109.5           0.000    
    129      4     42     16       109.3           109.5           0.000    
    130      5     42     16       109.3           109.5           0.000    
    131      4     42     15       109.3           109.5           0.000    
    132      5     42     15       109.3           109.5           0.000    
    133      4     43     15       109.3           109.5           0.000    
    134      5     43     15       109.3           109.5           0.000    
    135      4     43     14       109.3           109.5           0.000    
    136      5     43     14       109.3           109.5           0.000    
    137      4     43     13       109.3           109.5           0.000    
    138      5     43     13       109.3           109.5           0.000    
    139      4     43     12       109.3           109.5           0.000    
    140      5     43     12       109.3           109.5           0.000    
    141      4     43     11       109.3           109.5           0.000    
    142      5     43     11       109.3           109.5           0.000    
    143      4     43     10       109.3           109.5           0.000    
    144      5     43     10       109.3           109.5           0.000    
    145      4     44     10       109.3           109.5           0.000    
    146      5     44     10       109.3           109.5           0.000    
    147      4     44      9       109.3           109.5           0.000    
    148      5     44      9       109.3           109.5           0.000    
    149      4     44      8       109.3           109.5           0.000    
    150      5     44      8       109.3           109.5           0.000    
    151      4     44      7       109.3           109.5           0.000    
    152      5     44      7       109.3           109.5           0.000    
    153      4     44      6       109.3           109.5           0.000    
    154      5     44      6       109.3           109.5           0.000    
    155      4     44      5       109.3           109.5           0.000    
    156      5     44      5       109.3           109.5           0.000    
    157      4     44      4       109.3           109.5           0.000    
    158      5     44      4       109.3           109.5           0.000    
    159      4     44      3       109.3           109.5           0.000    
    160      5     44      3       109.3           109.5           0.000    
    161      4     45      3       109.3           109.5           0.000    
    162      5     45      3       109.3           109.5           0.000    
    163      4     45      2       109.3           109.5           0.000    
    164      5     45      2       109.3           109.5           0.000    
    165      4     45      1       109.3           109.5           0.000    
    166      5     45      1       109.3           109.5           0.000    


    166 TIME-VARIANT SPECIFIED-HEAD CELLS

 SOLVING FOR HEAD 


     4 CALLS TO PCG ROUTINE FOR TIME STEP   1 IN STRESS PERIOD   46
    70 TOTAL ITERATIONS

 MAXIMUM HEAD CHANGE FOR EACH ITERATION (1 INDICATES THE FIRST INNER ITERATION):

    HEAD CHANGE    HEAD CHANGE    HEAD CHANGE    HEAD CHANGE    HEAD CHANGE 
   LAYER,ROW,COL  LAYER,ROW,COL  LAYER,ROW,COL  LAYER,ROW,COL  LAYER,ROW,COL
 ---------------------------------------------------------------------------
  1  0.4362      0 -0.2317      0  0.1333      0 -0.1161      0  0.1559    
   (  5, 43,  6)  (  5, 35,  1)  (  5, 30,  2)  (  5, 41,  2)  (  5, 37,  1)
  0  0.8572E-01  0  0.9955E-01  0 -0.1106      0 -0.6367E-01  0 -0.4785E-01
   (  5, 39,  1)  (  5, 40,  1)  (  5, 37,  1)  (  5, 37,  6)  (  5, 40,  1)
  0 -0.4161E-01  0  0.2176E-01  0 -0.2346E-01  0 -0.2328E-01  0  0.2305E-01
   (  5, 35,  9)  (  5, 34,  4)  (  5, 29,  3)  (  5, 31,  9)  (  5, 36,  8)
  0 -0.9881E-02  0 -0.1442E-01  0  0.1034E-01  0 -0.8041E-02  0 -0.7023E-02
   (  5, 35,  4)  (  5, 34,  9)  (  5, 31,  9)  (  5, 30, 10)  (  5, 38,  4)
  0  0.4815E-02  0 -0.4085E-02  0  0.4023E-02  0  0.3703E-02  0 -0.3136E-02
   (  5, 37,  1)  (  5, 32,  4)  (  5, 34,  7)  (  5, 14,  1)  (  5, 13,  1)
  0  0.1921E-02  0 -0.1756E-02  0  0.1262E-02  0 -0.8364E-03  0  0.7526E-03
   (  5, 40,  2)  (  5, 37,  1)  (  5, 35,  1)  (  5, 35,  3)  (  5, 36,  1)
  1  0.8225E-03  0  0.5973E-03  0 -0.1179E-02  0  0.1320E-02  0 -0.6036E-03
   (  5, 40,  5)  (  5, 31,  4)  (  5, 39,  2)  (  5, 35,  3)  (  5, 33,  4)
  0  0.5887E-03  0  0.4464E-03  0 -0.3053E-03  0  0.3911E-03  0  0.2710E-03
   (  5, 38,  1)  (  5, 23,  4)  (  5, 25,  8)  (  5, 40,  1)  (  5, 36,  7)
  0  0.2092E-03  0 -0.8554E-04  0  0.1932E-03  0 -0.1289E-03  0 -0.9637E-04
   (  5, 38,  4)  (  5, 27,  1)  (  5, 30,  9)  (  5, 32,  8)  (  5, 14,  1)
  0  0.7643E-04  0  0.4687E-04  0 -0.4944E-04  0  0.4666E-04  0  0.2361E-04
   (  5, 13,  1)  (  5, 37,  1)  (  5, 33,  1)  (  5, 41,  1)  (  5, 30,  3)
  0 -0.1919E-04  0  0.1779E-04  0 -0.2224E-04  0 -0.1767E-04  0  0.1233E-04
   (  5, 30,  2)  (  5, 39,  5)  (  5, 36,  1)  (  5, 37,  8)  (  5, 36,  6)
  0 -0.1029E-04  0  0.6706E-05  0  0.5919E-05  0 -0.3395E-05  0 -0.3821E-05
   (  5, 14,  2)  (  5, 41,  5)  (  5, 37,  6)  (  5, 36,  2)  (  5, 27,  1)
  1  0.2754E-05  0  0.2297E-05  0 -0.2500E-05  0 -0.2010E-05  0  0.3869E-05
   (  5, 31,  2)  (  5, 38,  3)  (  5, 34,  2)  (  5, 37,  2)  (  5, 41,  2)
  0 -0.2211E-05  0  0.1329E-05  0 -0.1284E-05  0  0.9587E-06  1 -0.5840E-06
   (  5, 39,  1)  (  5, 36,  1)  (  5, 39,  5)  (  5, 27, 11)  (  5, 30,  3)

 MAXIMUM RESIDUAL FOR EACH ITERATION (1 INDICATES THE FIRST INNER ITERATION):

    RESIDUAL       RESIDUAL       RESIDUAL       RESIDUAL       RESIDUAL    
   LAYER,ROW,COL  LAYER,ROW,COL  LAYER,ROW,COL  LAYER,ROW,COL  LAYER,ROW,COL
 ---------------------------------------------------------------------------
  1 -0.2134E-02  0 -0.1655E-02  0 -0.1412E-02  0 -0.1239E-02  0 -0.1049E-02
   (  4, 44,  2)  (  4, 44,  2)  (  4, 44,  2)  (  4, 35, 35)  (  4, 35, 35)
  0 -0.8935E-03  0 -0.7580E-03  0 -0.6047E-03  0 -0.4837E-03  0 -0.3726E-03
   (  3, 40, 27)  (  3, 40, 27)  (  3, 40, 27)  (  3, 40, 27)  (  3, 40, 27)
  0 -0.2794E-03  0 -0.2517E-03  0  0.2126E-03  0  0.1693E-03  0  0.1322E-03
   (  3, 40, 27)  (  4, 35, 35)  (  3, 35, 35)  (  3, 35, 35)  (  3, 35, 35)
  0  0.1206E-03  0  0.9563E-04  0  0.7306E-04  0  0.6233E-04  0  0.5346E-04
   (  3, 35, 35)  (  3, 35, 35)  (  4, 34, 35)  (  4, 34, 35)  (  4, 34, 35)
  0  0.4991E-04  0  0.4717E-04  0  0.4000E-04  0  0.3118E-04  0  0.2456E-04
   (  4, 34, 35)  (  4, 34, 35)  (  4, 34, 35)  (  4, 34, 35)  (  4, 34, 35)
  0  0.2039E-04  0  0.1760E-04  0  0.1391E-04  0  0.1258E-04  0  0.8801E-05
   (  4, 34, 35)  (  4, 34, 35)  (  4, 34, 35)  (  4, 34, 35)  (  4, 34, 35)
  1  0.8065E-05  0  0.7773E-05  0  0.6970E-05  0  0.5712E-05  0  0.4829E-05
   (  4, 34, 35)  (  4, 34, 35)  (  4, 34, 35)  (  4, 34, 35)  (  4, 34, 35)
  0  0.4006E-05  0  0.3048E-05  0 -0.2948E-05  0 -0.2818E-05  0 -0.2606E-05
   (  4, 34, 35)  (  4, 34, 35)  (  4, 44,  1)  (  4, 44,  1)  (  4, 44,  1)
  0 -0.2239E-05  0 -0.2170E-05  0 -0.1790E-05  0 -0.1511E-05  0 -0.1135E-05
   (  4, 44,  1)  (  4, 44,  1)  (  4, 44,  1)  (  4, 44,  1)  (  4, 44,  1)
  0  0.8623E-06  0  0.7467E-06  0  0.6372E-06  0  0.4869E-06  0  0.3873E-06
   (  4, 44,  2)  (  4, 44,  2)  (  4, 44,  2)  (  4, 44,  2)  (  4, 44,  2)
  0  0.3562E-06  0  0.3214E-06  0  0.2519E-06  0  0.1717E-06  0  0.9620E-07
   (  4, 44,  2)  (  4, 44,  2)  (  4, 44,  2)  (  4, 44,  2)  (  4, 44,  2)
  0 -0.7929E-07  0 -0.7502E-07  0 -0.6587E-07  0 -0.6141E-07  0 -0.5160E-07
   (  4, 43,  2)  (  4, 43,  2)  (  4, 43,  2)  (  4, 43,  2)  (  4, 43,  2)
  1 -0.5136E-07  0 -0.4878E-07  0 -0.4279E-07  0 -0.3600E-07  0 -0.2414E-07
   (  4, 43,  2)  (  4, 43,  2)  (  4, 43,  2)  (  4, 43,  2)  (  4, 43,  2)
  0 -0.1405E-07  0 -0.1084E-07  0 -0.8382E-08  0 -0.7762E-08  1 -0.7485E-08
   (  4, 43,  2)  (  4, 43,  2)  (  4, 44,  1)  (  4, 44,  1)  (  4, 44,  1)



 OUTPUT CONTROL FOR STRESS PERIOD   46   TIME STEP    1
    SAVE HEAD FOR ALL LAYERS
    SAVE DRAWDOWN FOR ALL LAYERS
    SAVE BUDGET
    PRINT BUDGET
 UBDSV1 SAVING "         STORAGE" ON UNIT   9 AT TIME STEP  1, STRESS PERIOD  46
 UBDSV2 SAVING "   CONSTANT HEAD" ON UNIT   9 AT TIME STEP  1, STRESS PERIOD  46
 UBDSV1 SAVING "FLOW RIGHT FACE " ON UNIT   9 AT TIME STEP  1, STRESS PERIOD  46
 UBDSV1 SAVING "FLOW FRONT FACE " ON UNIT   9 AT TIME STEP  1, STRESS PERIOD  46
 UBDSV1 SAVING "FLOW LOWER FACE " ON UNIT   9 AT TIME STEP  1, STRESS PERIOD  46
 UBDSV3 SAVING "        RECHARGE" ON UNIT   9 AT TIME STEP  1, STRESS PERIOD  46

 HEAD WILL BE SAVED ON UNIT   37 AT END OF TIME STEP    1, STRESS PERIOD   46

 DRAWDOWN WILL BE SAVED ON UNIT   38 AT END OF TIME STEP    1, STRESS PERIOD   46
1
  VOLUMETRIC BUDGET FOR ENTIRE MODEL AT END OF TIME STEP    1, STRESS PERIOD  46
  ------------------------------------------------------------------------------

     CUMULATIVE VOLUMES      L**3       RATES FOR THIS TIME STEP      L**3/T
     ------------------                 ------------------------

           IN:                                      IN:
           ---                                      ---
             STORAGE =        9441.2363               STORAGE =       3.5241E-06
       CONSTANT HEAD =       13713.7061         CONSTANT HEAD =       2.3585E-03
            RECHARGE =         564.7321              RECHARGE =       1.0213E-04

            TOTAL IN =       23719.6738              TOTAL IN =       2.4641E-03

          OUT:                                     OUT:
          ----                                     ----
             STORAGE =        4642.1069               STORAGE =       2.3677E-03
       CONSTANT HEAD =       19078.2129         CONSTANT HEAD =       9.6502E-05
            RECHARGE =           0.0000              RECHARGE =           0.0000

           TOTAL OUT =       23720.3203             TOTAL OUT =       2.4642E-03

            IN - OUT =          -0.6465              IN - OUT =      -6.6357E-08

 PERCENT DISCREPANCY =          -0.00     PERCENT DISCREPANCY =          -0.00






         TIME SUMMARY AT END OF TIME STEP    1 IN STRESS PERIOD   46
                    SECONDS     MINUTES      HOURS       DAYS        YEARS
                    -----------------------------------------------------------
   TIME STEP LENGTH  86400.      1440.0      24.000      1.0000     2.73785E-03
 STRESS PERIOD TIME  86400.      1440.0      24.000      1.0000     2.73785E-03
         TOTAL TIME 5.52960E+06  92160.      1536.0      64.000     0.17522    
1
1
                            STRESS PERIOD NO.   47, LENGTH =   86400.00    
                            -----------------------------------------------

                              NUMBER OF TIME STEPS =     1

                               MULTIPLIER FOR DELT =     1.000

                            INITIAL TIME STEP SIZE =   86400.00    

 REUSING RECH FROM LAST STRESS PERIOD

 CHD NO.   LAYER   ROW   COL    START HEAD        END HEAD         IFACE           
 ----------------------------------------------------------------------------------
      1      4      3      1       109.6           109.6           0.000    
      2      5      3      1       109.6           109.6           0.000    
      3      4      3      2       109.6           109.6           0.000    
      4      5      3      2       109.6           109.6           0.000    
      5      4      3      3       109.6           109.6           0.000    
      6      5      3      3       109.6           109.6           0.000    
      7      4      3      4       109.6           109.6           0.000    
      8      5      3      4       109.6           109.6           0.000    
      9      4      3      5       109.6           109.6           0.000    
     10      5      3      5       109.6           109.6           0.000    
     11      4      3      6       109.6           109.6           0.000    
     12      5      3      6       109.6           109.6           0.000    
     13      4      3      7       109.6           109.6           0.000    
     14      5      3      7       109.6           109.6           0.000    
     15      4      3      8       109.6           109.6           0.000    
     16      5      3      8       109.6           109.6           0.000    
     17      4      2      8       109.6           109.6           0.000    
     18      5      2      8       109.6           109.6           0.000    
     19      4      2      9       109.6           109.6           0.000    
     20      5      2      9       109.6           109.6           0.000    
     21      4      2     10       109.6           109.6           0.000    
     22      5      2     10       109.6           109.6           0.000    
     23      4      2     11       109.6           109.6           0.000    
     24      5      2     11       109.6           109.6           0.000    
     25      4      2     12       109.6           109.6           0.000    
     26      5      2     12       109.6           109.6           0.000    
     27      4      2     13       109.6           109.6           0.000    
     28      5      2     13       109.6           109.6           0.000    
     29      4      2     14       109.6           109.6           0.000    
     30      5      2     14       109.6           109.6           0.000    
     31      4      2     15       109.6           109.6           0.000    
     32      5      2     15       109.6           109.6           0.000    
     33      4      2     16       109.6           109.6           0.000    
     34      5      2     16       109.6           109.6           0.000    
     35      4      2     17       109.6           109.6           0.000    
     36      5      2     17       109.6           109.6           0.000    
     37      4      2     18       109.6           109.6           0.000    
     38      5      2     18       109.6           109.6           0.000    
     39      4      2     19       109.6           109.6           0.000    
     40      5      2     19       109.6           109.6           0.000    
     41      4      2     20       109.6           109.6           0.000    
     42      5      2     20       109.6           109.6           0.000    
     43      4      2     21       109.6           109.6           0.000    
     44      5      2     21       109.6           109.6           0.000    
     45      4      2     22       109.6           109.6           0.000    
     46      5      2     22       109.6           109.6           0.000    
     47      4      2     23       109.6           109.6           0.000    
     48      5      2     23       109.6           109.6           0.000    
     49      4      2     24       109.6           109.6           0.000    
     50      5      2     24       109.6           109.6           0.000    
     51      4      2     25       109.6           109.6           0.000    
     52      5      2     25       109.6           109.6           0.000    
     53      4      2     26       109.6           109.6           0.000    
     54      5      2     26       109.6           109.6           0.000    
     55      4      1     26       109.6           109.6           0.000    
     56      5      1     26       109.6           109.6           0.000    
     57      4      1     27       109.6           109.6           0.000    
     58      5      1     27       109.6           109.6           0.000    
     59      4      1     28       109.6           109.6           0.000    
     60      5      1     28       109.6           109.6           0.000    
     61      4      1     29       109.6           109.6           0.000    
     62      5      1     29       109.6           109.6           0.000    
     63      4      1     30       109.6           109.6           0.000    
     64      5      1     30       109.6           109.6           0.000    
     65      4      1     31       109.6           109.6           0.000    
     66      5      1     31       109.6           109.6           0.000    
     67      4      1     32       109.6           109.6           0.000    
     68      5      1     32       109.6           109.6           0.000    
     69      4      1     33       109.6           109.6           0.000    
     70      5      1     33       109.6           109.6           0.000    
     71      4      1     34       109.6           109.6           0.000    
     72      5      1     34       109.6           109.6           0.000    
     73      4      1     35       109.6           109.6           0.000    
     74      5      1     35       109.6           109.6           0.000    
     75      4     36     35       109.5           109.6           0.000    
     76      5     36     35       109.5           109.6           0.000    
     77      4     35     34       109.5           109.6           0.000    
     78      5     35     34       109.5           109.6           0.000    
     79      4     36     34       109.5           109.6           0.000    
     80      5     36     34       109.5           109.6           0.000    
     81      4     36     33       109.5           109.6           0.000    
     82      5     36     33       109.5           109.6           0.000    
     83      4     36     32       109.5           109.6           0.000    
     84      5     36     32       109.5           109.6           0.000    
     85      4     37     32       109.5           109.6           0.000    
     86      5     37     32       109.5           109.6           0.000    
     87      4     37     31       109.5           109.6           0.000    
     88      5     37     31       109.5           109.6           0.000    
     89      4     38     31       109.5           109.6           0.000    
     90      5     38     31       109.5           109.6           0.000    
     91      4     38     30       109.5           109.6           0.000    
     92      5     38     30       109.5           109.6           0.000    
     93      4     39     30       109.5           109.6           0.000    
     94      5     39     30       109.5           109.6           0.000    
     95      4     39     29       109.5           109.6           0.000    
     96      5     39     29       109.5           109.6           0.000    
     97      4     40     29       109.5           109.6           0.000    
     98      5     40     29       109.5           109.6           0.000    
     99      4     40     28       109.5           109.6           0.000    
    100      5     40     28       109.5           109.6           0.000    
    101      4     40     27       109.5           109.6           0.000    
    102      5     40     27       109.5           109.6           0.000    
    103      4     41     27       109.5           109.6           0.000    
    104      5     41     27       109.5           109.6           0.000    
    105      4     41     26       109.5           109.6           0.000    
    106      5     41     26       109.5           109.6           0.000    
    107      4     41     25       109.5           109.6           0.000    
    108      5     41     25       109.5           109.6           0.000    
    109      4     41     24       109.5           109.6           0.000    
    110      5     41     24       109.5           109.6           0.000    
    111      4     41     23       109.5           109.6           0.000    
    112      5     41     23       109.5           109.6           0.000    
    113      4     41     22       109.5           109.6           0.000    
    114      5     41     22       109.5           109.6           0.000    
    115      4     42     22       109.5           109.6           0.000    
    116      5     42     22       109.5           109.6           0.000    
    117      4     42     21       109.5           109.6           0.000    
    118      5     42     21       109.5           109.6           0.000    
    119      4     42     20       109.5           109.6           0.000    
    120      5     42     20       109.5           109.6           0.000    
    121      4     42     19       109.5           109.6           0.000    
    122      5     42     19       109.5           109.6           0.000    
    123      4     43     18       109.5           109.6           0.000    
    124      5     43     18       109.5           109.6           0.000    
    125      4     42     18       109.5           109.6           0.000    
    126      5     42     18       109.5           109.6           0.000    
    127      4     42     17       109.5           109.6           0.000    
    128      5     42     17       109.5           109.6           0.000    
    129      4     42     16       109.5           109.6           0.000    
    130      5     42     16       109.5           109.6           0.000    
    131      4     42     15       109.5           109.6           0.000    
    132      5     42     15       109.5           109.6           0.000    
    133      4     43     15       109.5           109.6           0.000    
    134      5     43     15       109.5           109.6           0.000    
    135      4     43     14       109.5           109.6           0.000    
    136      5     43     14       109.5           109.6           0.000    
    137      4     43     13       109.5           109.6           0.000    
    138      5     43     13       109.5           109.6           0.000    
    139      4     43     12       109.5           109.6           0.000    
    140      5     43     12       109.5           109.6           0.000    
    141      4     43     11       109.5           109.6           0.000    
    142      5     43     11       109.5           109.6           0.000    
    143      4     43     10       109.5           109.6           0.000    
    144      5     43     10       109.5           109.6           0.000    
    145      4     44     10       109.5           109.6           0.000    
    146      5     44     10       109.5           109.6           0.000    
    147      4     44      9       109.5           109.6           0.000    
    148      5     44      9       109.5           109.6           0.000    
    149      4     44      8       109.5           109.6           0.000    
    150      5     44      8       109.5           109.6           0.000    
    151      4     44      7       109.5           109.6           0.000    
    152      5     44      7       109.5           109.6           0.000    
    153      4     44      6       109.5           109.6           0.000    
    154      5     44      6       109.5           109.6           0.000    
    155      4     44      5       109.5           109.6           0.000    
    156      5     44      5       109.5           109.6           0.000    
    157      4     44      4       109.5           109.6           0.000    
    158      5     44      4       109.5           109.6           0.000    
    159      4     44      3       109.5           109.6           0.000    
    160      5     44      3       109.5           109.6           0.000    
    161      4     45      3       109.5           109.6           0.000    
    162      5     45      3       109.5           109.6           0.000    
    163      4     45      2       109.5           109.6           0.000    
    164      5     45      2       109.5           109.6           0.000    
    165      4     45      1       109.5           109.6           0.000    
    166      5     45      1       109.5           109.6           0.000    


    166 TIME-VARIANT SPECIFIED-HEAD CELLS

 SOLVING FOR HEAD 


     4 CALLS TO PCG ROUTINE FOR TIME STEP   1 IN STRESS PERIOD   47
    68 TOTAL ITERATIONS

 MAXIMUM HEAD CHANGE FOR EACH ITERATION (1 INDICATES THE FIRST INNER ITERATION):

    HEAD CHANGE    HEAD CHANGE    HEAD CHANGE    HEAD CHANGE    HEAD CHANGE 
   LAYER,ROW,COL  LAYER,ROW,COL  LAYER,ROW,COL  LAYER,ROW,COL  LAYER,ROW,COL
 ---------------------------------------------------------------------------
  1  0.3886      0 -0.2110      0  0.1208      0 -0.1066      0  0.1353    
   (  5, 43,  5)  (  5, 35,  1)  (  5, 30,  2)  (  5, 41,  2)  (  5, 37,  1)
  0  0.7885E-01  0  0.8973E-01  0 -0.9781E-01  0 -0.5560E-01  0 -0.4428E-01
   (  5, 39,  1)  (  5, 40,  1)  (  5, 37,  1)  (  5, 37,  6)  (  5, 40,  1)
  0 -0.3777E-01  0 -0.2071E-01  0  0.2958E-01  0 -0.2438E-01  0  0.1793E-01
   (  5, 35,  9)  (  5, 28,  2)  (  5, 33,  9)  (  5, 30,  8)  (  5, 36,  8)
  0  0.1088E-01  0 -0.9879E-02  0 -0.8061E-02  0  0.6248E-02  0 -0.6151E-02
   (  5, 34,  1)  (  5, 35,  4)  (  5, 15,  1)  (  5, 38,  7)  (  5, 36,  7)
  0  0.3901E-02  0 -0.3814E-02  0  0.2859E-02  0  0.2969E-02  0 -0.2486E-02
   (  5, 33,  7)  (  5, 32,  4)  (  5, 38,  2)  (  5, 14,  1)  (  5, 13,  1)
  0  0.1507E-02  0 -0.1436E-02  0  0.9926E-03  0 -0.5237E-03  0  0.8016E-03
   (  5, 39,  2)  (  5, 37,  1)  (  5, 40,  2)  (  5, 36,  3)  (  5, 36,  1)
  1  0.3855E-03  0 -0.4405E-03  0  0.5404E-03  0 -0.6036E-03  0  0.6301E-03
   (  5, 33,  6)  (  5, 28,  2)  (  5, 35,  3)  (  5, 40,  2)  (  5, 41,  2)
  0 -0.3875E-03  0  0.4510E-03  0 -0.1847E-03  0  0.2632E-03  0 -0.1606E-03
   (  5, 39,  2)  (  5, 39,  4)  (  5, 37,  1)  (  5, 34,  1)  (  5, 33,  7)
  0  0.1118E-03  0 -0.5265E-04  0 -0.6621E-04  0  0.6979E-04  0  0.5525E-04
   (  5, 38,  4)  (  5, 28,  2)  (  5, 41,  2)  (  5, 40,  2)  (  5, 35,  4)
  0 -0.4588E-04  0  0.3034E-04  0 -0.2022E-04  0  0.3103E-04  0 -0.1656E-04
   (  5, 29,  9)  (  5, 32,  2)  (  5, 34,  3)  (  5, 38,  8)  (  5, 31,  9)
  0  0.1030E-04  0 -0.1425E-04  0 -0.9899E-05  0  0.8255E-05  0 -0.6732E-05
   (  5, 29,  1)  (  5, 28, 11)  (  5, 35,  9)  (  5, 37,  1)  (  5, 40,  2)
  0 -0.6320E-05  0  0.4291E-05  0 -0.3549E-05  0  0.2805E-05  0 -0.1403E-05
   (  5, 34,  6)  (  5, 36,  7)  (  5, 35,  6)  (  5, 34,  3)  (  5, 30,  5)
  1  0.1385E-05  0 -0.1844E-05  0  0.1623E-05  0 -0.1978E-05  0 -0.2168E-05
   (  5, 28,  3)  (  5, 33,  3)  (  5, 32,  1)  (  5, 37,  2)  (  5, 36,  6)
  0  0.1791E-05  0  0.9712E-06  1 -0.8382E-06
   (  5, 34,  5)  (  5, 38,  3)  (  5, 38,  1)

 MAXIMUM RESIDUAL FOR EACH ITERATION (1 INDICATES THE FIRST INNER ITERATION):

    RESIDUAL       RESIDUAL       RESIDUAL       RESIDUAL       RESIDUAL    
   LAYER,ROW,COL  LAYER,ROW,COL  LAYER,ROW,COL  LAYER,ROW,COL  LAYER,ROW,COL
 ---------------------------------------------------------------------------
  1 -0.1631E-02  0 -0.1212E-02  0 -0.1080E-02  0 -0.9716E-03  0 -0.8133E-03
   (  4, 44,  2)  (  4, 44,  2)  (  4, 35, 35)  (  4, 35, 35)  (  4, 35, 35)
  0 -0.6775E-03  0 -0.5613E-03  0 -0.4397E-03  0 -0.3461E-03  0  0.2828E-03
   (  4, 35, 35)  (  3, 40, 27)  (  3, 40, 27)  (  3, 40, 27)  (  4, 43,  4)
  0  0.2304E-03  0  0.2090E-03  0  0.1802E-03  0  0.1424E-03  0  0.1108E-03
   (  4, 43,  4)  (  4, 43,  4)  (  4, 43,  4)  (  4, 43,  4)  (  4, 43,  4)
  0  0.9959E-04  0  0.8579E-04  0  0.6806E-04  0  0.5512E-04  0  0.4154E-04
   (  4, 44,  2)  (  4, 44,  2)  (  4, 44,  2)  (  4, 44,  2)  (  4, 44,  2)
  0  0.3548E-04  0  0.3080E-04  0  0.2870E-04  0  0.2280E-04  0  0.1789E-04
   (  4, 44,  2)  (  4, 34, 35)  (  4, 34, 35)  (  4, 34, 35)  (  4, 34, 35)
  0  0.1476E-04  0  0.1276E-04  0  0.9443E-05  0  0.8436E-05  0  0.6497E-05
   (  4, 34, 35)  (  4, 34, 35)  (  4, 34, 35)  (  4, 34, 35)  (  4, 34, 35)
  1  0.6238E-05  0  0.6017E-05  0  0.5644E-05  0  0.4453E-05  0  0.3207E-05
   (  4, 34, 35)  (  4, 34, 35)  (  4, 34, 35)  (  4, 34, 35)  (  4, 34, 35)
  0  0.2685E-05  0  0.1991E-05  0  0.1774E-05  0  0.1387E-05  0  0.1147E-05
   (  4, 34, 35)  (  4, 34, 35)  (  4, 34, 35)  (  4, 34, 35)  (  4, 34, 35)
  0  0.9165E-06  0  0.8795E-06  0  0.6474E-06  0  0.5101E-06  0 -0.4054E-06
   (  4, 34, 35)  (  4, 34, 35)  (  4, 34, 35)  (  4, 34, 35)  (  4, 35, 35)
  0 -0.3206E-06  0 -0.2568E-06  0 -0.2388E-06  0 -0.1846E-06  0 -0.1456E-06
   (  4, 35, 35)  (  4, 35, 35)  (  4, 35, 35)  (  4, 35, 35)  (  4, 35, 35)
  0 -0.1386E-06  0 -0.1058E-06  0 -0.7987E-07  0 -0.6192E-07  0 -0.5448E-07
   (  4, 35, 35)  (  4, 35, 35)  (  4, 35, 35)  (  4, 35, 35)  (  4, 35, 35)
  0 -0.4492E-07  0 -0.3445E-07  0 -0.2296E-07  0 -0.1965E-07  0 -0.1812E-07
   (  4, 35, 35)  (  4, 35, 35)  (  4, 35, 35)  (  4, 35, 35)  (  4, 35, 35)
  1 -0.1789E-07  0 -0.1723E-07  0 -0.1633E-07  0 -0.1502E-07  0 -0.1150E-07
   (  4, 35, 35)  (  4, 35, 35)  (  4, 35, 35)  (  4, 35, 35)  (  4, 35, 35)
  0 -0.8575E-08  0 -0.7673E-08  1 -0.7588E-08
   (  4, 35, 35)  (  4, 35, 35)  (  4, 35, 35)



 OUTPUT CONTROL FOR STRESS PERIOD   47   TIME STEP    1
    SAVE HEAD FOR ALL LAYERS
    SAVE DRAWDOWN FOR ALL LAYERS
    SAVE BUDGET
    PRINT BUDGET
 UBDSV1 SAVING "         STORAGE" ON UNIT   9 AT TIME STEP  1, STRESS PERIOD  47
 UBDSV2 SAVING "   CONSTANT HEAD" ON UNIT   9 AT TIME STEP  1, STRESS PERIOD  47
 UBDSV1 SAVING "FLOW RIGHT FACE " ON UNIT   9 AT TIME STEP  1, STRESS PERIOD  47
 UBDSV1 SAVING "FLOW FRONT FACE " ON UNIT   9 AT TIME STEP  1, STRESS PERIOD  47
 UBDSV1 SAVING "FLOW LOWER FACE " ON UNIT   9 AT TIME STEP  1, STRESS PERIOD  47
 UBDSV3 SAVING "        RECHARGE" ON UNIT   9 AT TIME STEP  1, STRESS PERIOD  47

 HEAD WILL BE SAVED ON UNIT   37 AT END OF TIME STEP    1, STRESS PERIOD   47

 DRAWDOWN WILL BE SAVED ON UNIT   38 AT END OF TIME STEP    1, STRESS PERIOD   47
1
  VOLUMETRIC BUDGET FOR ENTIRE MODEL AT END OF TIME STEP    1, STRESS PERIOD  47
  ------------------------------------------------------------------------------

     CUMULATIVE VOLUMES      L**3       RATES FOR THIS TIME STEP      L**3/T
     ------------------                 ------------------------

           IN:                                      IN:
           ---                                      ---
             STORAGE =        9441.2363               STORAGE =           0.0000
       CONSTANT HEAD =       14010.6377         CONSTANT HEAD =       3.4367E-03
            RECHARGE =         573.5560              RECHARGE =       1.0213E-04

            TOTAL IN =       24025.4316              TOTAL IN =       3.5388E-03

          OUT:                                     OUT:
          ----                                     ----
             STORAGE =        4946.0894               STORAGE =       3.5183E-03
       CONSTANT HEAD =       19079.9844         CONSTANT HEAD =       2.0512E-05
            RECHARGE =           0.0000              RECHARGE =           0.0000

           TOTAL OUT =       24026.0742             TOTAL OUT =       3.5388E-03

            IN - OUT =          -0.6426              IN - OUT =       1.0012E-08

 PERCENT DISCREPANCY =          -0.00     PERCENT DISCREPANCY =           0.00






         TIME SUMMARY AT END OF TIME STEP    1 IN STRESS PERIOD   47
                    SECONDS     MINUTES      HOURS       DAYS        YEARS
                    -----------------------------------------------------------
   TIME STEP LENGTH  86400.      1440.0      24.000      1.0000     2.73785E-03
 STRESS PERIOD TIME  86400.      1440.0      24.000      1.0000     2.73785E-03
         TOTAL TIME 5.61600E+06  93600.      1560.0      65.000     0.17796    
1
1
                            STRESS PERIOD NO.   48, LENGTH =   86400.00    
                            -----------------------------------------------

                              NUMBER OF TIME STEPS =     1

                               MULTIPLIER FOR DELT =     1.000

                            INITIAL TIME STEP SIZE =   86400.00    

 REUSING RECH FROM LAST STRESS PERIOD

 CHD NO.   LAYER   ROW   COL    START HEAD        END HEAD         IFACE           
 ----------------------------------------------------------------------------------
      1      4      3      1       109.6           109.7           0.000    
      2      5      3      1       109.6           109.7           0.000    
      3      4      3      2       109.6           109.7           0.000    
      4      5      3      2       109.6           109.7           0.000    
      5      4      3      3       109.6           109.7           0.000    
      6      5      3      3       109.6           109.7           0.000    
      7      4      3      4       109.6           109.7           0.000    
      8      5      3      4       109.6           109.7           0.000    
      9      4      3      5       109.6           109.7           0.000    
     10      5      3      5       109.6           109.7           0.000    
     11      4      3      6       109.6           109.7           0.000    
     12      5      3      6       109.6           109.7           0.000    
     13      4      3      7       109.6           109.7           0.000    
     14      5      3      7       109.6           109.7           0.000    
     15      4      3      8       109.6           109.7           0.000    
     16      5      3      8       109.6           109.7           0.000    
     17      4      2      8       109.6           109.7           0.000    
     18      5      2      8       109.6           109.7           0.000    
     19      4      2      9       109.6           109.7           0.000    
     20      5      2      9       109.6           109.7           0.000    
     21      4      2     10       109.6           109.7           0.000    
     22      5      2     10       109.6           109.7           0.000    
     23      4      2     11       109.6           109.7           0.000    
     24      5      2     11       109.6           109.7           0.000    
     25      4      2     12       109.6           109.7           0.000    
     26      5      2     12       109.6           109.7           0.000    
     27      4      2     13       109.6           109.7           0.000    
     28      5      2     13       109.6           109.7           0.000    
     29      4      2     14       109.6           109.7           0.000    
     30      5      2     14       109.6           109.7           0.000    
     31      4      2     15       109.6           109.7           0.000    
     32      5      2     15       109.6           109.7           0.000    
     33      4      2     16       109.6           109.7           0.000    
     34      5      2     16       109.6           109.7           0.000    
     35      4      2     17       109.6           109.7           0.000    
     36      5      2     17       109.6           109.7           0.000    
     37      4      2     18       109.6           109.7           0.000    
     38      5      2     18       109.6           109.7           0.000    
     39      4      2     19       109.6           109.7           0.000    
     40      5      2     19       109.6           109.7           0.000    
     41      4      2     20       109.6           109.7           0.000    
     42      5      2     20       109.6           109.7           0.000    
     43      4      2     21       109.6           109.7           0.000    
     44      5      2     21       109.6           109.7           0.000    
     45      4      2     22       109.6           109.7           0.000    
     46      5      2     22       109.6           109.7           0.000    
     47      4      2     23       109.6           109.7           0.000    
     48      5      2     23       109.6           109.7           0.000    
     49      4      2     24       109.6           109.7           0.000    
     50      5      2     24       109.6           109.7           0.000    
     51      4      2     25       109.6           109.7           0.000    
     52      5      2     25       109.6           109.7           0.000    
     53      4      2     26       109.6           109.7           0.000    
     54      5      2     26       109.6           109.7           0.000    
     55      4      1     26       109.6           109.7           0.000    
     56      5      1     26       109.6           109.7           0.000    
     57      4      1     27       109.6           109.7           0.000    
     58      5      1     27       109.6           109.7           0.000    
     59      4      1     28       109.6           109.7           0.000    
     60      5      1     28       109.6           109.7           0.000    
     61      4      1     29       109.6           109.7           0.000    
     62      5      1     29       109.6           109.7           0.000    
     63      4      1     30       109.6           109.7           0.000    
     64      5      1     30       109.6           109.7           0.000    
     65      4      1     31       109.6           109.7           0.000    
     66      5      1     31       109.6           109.7           0.000    
     67      4      1     32       109.6           109.7           0.000    
     68      5      1     32       109.6           109.7           0.000    
     69      4      1     33       109.6           109.7           0.000    
     70      5      1     33       109.6           109.7           0.000    
     71      4      1     34       109.6           109.7           0.000    
     72      5      1     34       109.6           109.7           0.000    
     73      4      1     35       109.6           109.7           0.000    
     74      5      1     35       109.6           109.7           0.000    
     75      4     36     35       109.6           109.6           0.000    
     76      5     36     35       109.6           109.6           0.000    
     77      4     35     34       109.6           109.6           0.000    
     78      5     35     34       109.6           109.6           0.000    
     79      4     36     34       109.6           109.6           0.000    
     80      5     36     34       109.6           109.6           0.000    
     81      4     36     33       109.6           109.6           0.000    
     82      5     36     33       109.6           109.6           0.000    
     83      4     36     32       109.6           109.6           0.000    
     84      5     36     32       109.6           109.6           0.000    
     85      4     37     32       109.6           109.6           0.000    
     86      5     37     32       109.6           109.6           0.000    
     87      4     37     31       109.6           109.6           0.000    
     88      5     37     31       109.6           109.6           0.000    
     89      4     38     31       109.6           109.6           0.000    
     90      5     38     31       109.6           109.6           0.000    
     91      4     38     30       109.6           109.6           0.000    
     92      5     38     30       109.6           109.6           0.000    
     93      4     39     30       109.6           109.6           0.000    
     94      5     39     30       109.6           109.6           0.000    
     95      4     39     29       109.6           109.6           0.000    
     96      5     39     29       109.6           109.6           0.000    
     97      4     40     29       109.6           109.6           0.000    
     98      5     40     29       109.6           109.6           0.000    
     99      4     40     28       109.6           109.6           0.000    
    100      5     40     28       109.6           109.6           0.000    
    101      4     40     27       109.6           109.6           0.000    
    102      5     40     27       109.6           109.6           0.000    
    103      4     41     27       109.6           109.6           0.000    
    104      5     41     27       109.6           109.6           0.000    
    105      4     41     26       109.6           109.6           0.000    
    106      5     41     26       109.6           109.6           0.000    
    107      4     41     25       109.6           109.6           0.000    
    108      5     41     25       109.6           109.6           0.000    
    109      4     41     24       109.6           109.6           0.000    
    110      5     41     24       109.6           109.6           0.000    
    111      4     41     23       109.6           109.5           0.000    
    112      5     41     23       109.6           109.5           0.000    
    113      4     41     22       109.6           109.5           0.000    
    114      5     41     22       109.6           109.5           0.000    
    115      4     42     22       109.6           109.5           0.000    
    116      5     42     22       109.6           109.5           0.000    
    117      4     42     21       109.6           109.5           0.000    
    118      5     42     21       109.6           109.5           0.000    
    119      4     42     20       109.6           109.5           0.000    
    120      5     42     20       109.6           109.5           0.000    
    121      4     42     19       109.6           109.5           0.000    
    122      5     42     19       109.6           109.5           0.000    
    123      4     43     18       109.6           109.5           0.000    
    124      5     43     18       109.6           109.5           0.000    
    125      4     42     18       109.6           109.5           0.000    
    126      5     42     18       109.6           109.5           0.000    
    127      4     42     17       109.6           109.5           0.000    
    128      5     42     17       109.6           109.5           0.000    
    129      4     42     16       109.6           109.5           0.000    
    130      5     42     16       109.6           109.5           0.000    
    131      4     42     15       109.6           109.5           0.000    
    132      5     42     15       109.6           109.5           0.000    
    133      4     43     15       109.6           109.5           0.000    
    134      5     43     15       109.6           109.5           0.000    
    135      4     43     14       109.6           109.5           0.000    
    136      5     43     14       109.6           109.5           0.000    
    137      4     43     13       109.6           109.5           0.000    
    138      5     43     13       109.6           109.5           0.000    
    139      4     43     12       109.6           109.5           0.000    
    140      5     43     12       109.6           109.5           0.000    
    141      4     43     11       109.6           109.5           0.000    
    142      5     43     11       109.6           109.5           0.000    
    143      4     43     10       109.6           109.5           0.000    
    144      5     43     10       109.6           109.5           0.000    
    145      4     44     10       109.6           109.5           0.000    
    146      5     44     10       109.6           109.5           0.000    
    147      4     44      9       109.6           109.5           0.000    
    148      5     44      9       109.6           109.5           0.000    
    149      4     44      8       109.6           109.5           0.000    
    150      5     44      8       109.6           109.5           0.000    
    151      4     44      7       109.6           109.5           0.000    
    152      5     44      7       109.6           109.5           0.000    
    153      4     44      6       109.6           109.5           0.000    
    154      5     44      6       109.6           109.5           0.000    
    155      4     44      5       109.6           109.5           0.000    
    156      5     44      5       109.6           109.5           0.000    
    157      4     44      4       109.6           109.5           0.000    
    158      5     44      4       109.6           109.5           0.000    
    159      4     44      3       109.6           109.5           0.000    
    160      5     44      3       109.6           109.5           0.000    
    161      4     45      3       109.6           109.5           0.000    
    162      5     45      3       109.6           109.5           0.000    
    163      4     45      2       109.6           109.5           0.000    
    164      5     45      2       109.6           109.5           0.000    
    165      4     45      1       109.6           109.5           0.000    
    166      5     45      1       109.6           109.5           0.000    


    166 TIME-VARIANT SPECIFIED-HEAD CELLS

 SOLVING FOR HEAD 


     3 CALLS TO PCG ROUTINE FOR TIME STEP   1 IN STRESS PERIOD   48
    61 TOTAL ITERATIONS

 MAXIMUM HEAD CHANGE FOR EACH ITERATION (1 INDICATES THE FIRST INNER ITERATION):

    HEAD CHANGE    HEAD CHANGE    HEAD CHANGE    HEAD CHANGE    HEAD CHANGE 
   LAYER,ROW,COL  LAYER,ROW,COL  LAYER,ROW,COL  LAYER,ROW,COL  LAYER,ROW,COL
 ---------------------------------------------------------------------------
  1 -0.1706      0  0.1038      0 -0.6681E-01  0  0.5070E-01  0 -0.7626E-01
   (  5, 43,  5)  (  5, 36,  2)  (  5, 32,  2)  (  5, 28,  3)  (  5, 37,  1)
  0  0.4040E-01  0 -0.4036E-01  0  0.4637E-01  0  0.2956E-01  0  0.2043E-01
   (  5, 35,  2)  (  5, 40,  1)  (  5, 37,  1)  (  5, 37,  6)  (  5, 40,  1)
  0  0.1596E-01  0  0.1540E-01  0 -0.7089E-02  0  0.7367E-02  0  0.9972E-02
   (  5, 33,  1)  (  5, 28, 10)  (  5, 30,  1)  (  5, 38,  7)  (  5, 32,  9)
  0  0.5238E-02  0  0.4260E-02  0  0.5722E-02  0 -0.3378E-02  0  0.3041E-02
   (  5, 25,  2)  (  5, 36,  4)  (  5, 35,  8)  (  5, 34,  9)  (  5, 36,  7)
  0  0.1930E-02  0  0.1423E-02  0 -0.7723E-03  0 -0.1388E-02  0  0.1387E-02
   (  5, 14,  1)  (  5, 32,  4)  (  5, 31,  1)  (  5, 14,  1)  (  5, 13,  1)
  0 -0.7983E-03  0  0.6808E-03  0 -0.5250E-03  0  0.4358E-03  0 -0.3184E-03
   (  5, 40,  2)  (  5, 37,  1)  (  5, 35,  1)  (  5, 35,  3)  (  5, 12,  1)
  1 -0.2066E-03  0  0.1040E-03  0 -0.2262E-03  0  0.1283E-03  0 -0.1508E-03
   (  5, 31,  5)  (  5, 28,  1)  (  5, 34,  3)  (  5, 34,  1)  (  5, 37,  1)
  0  0.1006E-03  0  0.1017E-03  0 -0.1166E-03  0  0.9669E-04  0 -0.6390E-04
   (  5, 40,  2)  (  5, 37,  2)  (  5, 39,  1)  (  5, 37,  1)  (  5, 39,  2)
  0  0.6960E-04  0 -0.4322E-04  0 -0.2895E-04  0  0.2632E-04  0  0.2365E-04
   (  5, 41,  2)  (  5, 39,  1)  (  5, 30,  5)  (  5, 32,  3)  (  5, 31,  7)
  0 -0.1493E-04  0  0.1227E-04  0  0.1533E-04  0 -0.1258E-04  0 -0.6204E-05
   (  5, 37,  1)  (  5, 33,  1)  (  5, 28,  8)  (  5, 41,  1)  (  5, 39,  5)
  0  0.6772E-05  0  0.5229E-05  0 -0.2092E-05  0  0.4275E-05  0  0.2978E-05
   (  5, 36,  1)  (  5, 32,  5)  (  5, 34,  4)  (  5, 31,  1)  (  5, 35,  8)
  0  0.2428E-05  0 -0.1679E-05  0  0.1549E-05  0  0.1125E-05  0  0.8569E-06
   (  5, 40,  1)  (  5, 41,  4)  (  5, 37,  1)  (  5, 36,  2)  (  5, 27,  8)
  1  0.7810E-06
   (  5, 14,  1)

 MAXIMUM RESIDUAL FOR EACH ITERATION (1 INDICATES THE FIRST INNER ITERATION):

    RESIDUAL       RESIDUAL       RESIDUAL       RESIDUAL       RESIDUAL    
   LAYER,ROW,COL  LAYER,ROW,COL  LAYER,ROW,COL  LAYER,ROW,COL  LAYER,ROW,COL
 ---------------------------------------------------------------------------
  1  0.7165E-03  0  0.5330E-03  0  0.4280E-03  0  0.3719E-03  0  0.3102E-03
   (  4, 44,  2)  (  4, 44,  2)  (  4, 44,  2)  (  3, 40, 27)  (  3, 40, 27)
  0  0.2670E-03  0  0.2226E-03  0 -0.1928E-03  0 -0.1620E-03  0 -0.1380E-03
   (  3, 40, 27)  (  3, 40, 27)  (  4, 43,  6)  (  4, 43,  5)  (  4, 43,  4)
  0 -0.1098E-03  0 -0.8503E-04  0 -0.7870E-04  0 -0.6903E-04  0 -0.5819E-04
   (  4, 43,  4)  (  4, 43,  4)  (  4, 43,  4)  (  4, 44,  2)  (  4, 44,  2)
  0 -0.4929E-04  0 -0.4530E-04  0 -0.3468E-04  0 -0.2710E-04  0 -0.1964E-04
   (  4, 44,  2)  (  4, 44,  2)  (  4, 44,  2)  (  4, 44,  2)  (  4, 44,  2)
  0 -0.1415E-04  0 -0.1320E-04  0 -0.1264E-04  0 -0.1014E-04  0 -0.8059E-05
   (  4, 34, 35)  (  4, 34, 35)  (  4, 34, 35)  (  4, 34, 35)  (  4, 34, 35)
  0 -0.6520E-05  0 -0.5793E-05  0 -0.4783E-05  0 -0.4103E-05  0 -0.2808E-05
   (  4, 34, 35)  (  4, 34, 35)  (  4, 34, 35)  (  4, 34, 35)  (  4, 34, 35)
  1 -0.2632E-05  0 -0.2591E-05  0 -0.2197E-05  0 -0.2037E-05  0 -0.1754E-05
   (  4, 34, 35)  (  4, 34, 35)  (  4, 34, 35)  (  4, 34, 35)  (  4, 34, 35)
  0 -0.1454E-05  0 -0.1230E-05  0 -0.9300E-06  0 -0.6544E-06  0 -0.4890E-06
   (  4, 34, 35)  (  4, 34, 35)  (  4, 34, 35)  (  4, 34, 35)  (  4, 34, 35)
  0 -0.3192E-06  0  0.2262E-06  0  0.1984E-06  0  0.1834E-06  0  0.1430E-06
   (  4, 34, 35)  (  4, 35, 35)  (  4, 35, 35)  (  4, 35, 35)  (  4, 35, 35)
  0  0.1156E-06  0  0.1042E-06  0  0.8195E-07  0  0.5910E-07  0  0.4273E-07
   (  4, 35, 35)  (  4, 35, 35)  (  4, 35, 35)  (  4, 35, 35)  (  4, 35, 35)
  0  0.3508E-07  0  0.2759E-07  0  0.2588E-07  0  0.2048E-07  0  0.1646E-07
   (  4, 35, 35)  (  4, 35, 35)  (  4, 35, 35)  (  3, 41, 22)  (  3, 41, 22)
  0  0.1283E-07  0  0.1077E-07  0  0.8866E-08  0  0.8381E-08  0  0.7060E-08
   (  3, 41, 22)  (  3, 41, 22)  (  4, 44,  2)  (  4, 44,  2)  (  4, 44,  2)
  1  0.6554E-08
   (  4, 44,  2)



 OUTPUT CONTROL FOR STRESS PERIOD   48   TIME STEP    1
    SAVE HEAD FOR ALL LAYERS
    SAVE DRAWDOWN FOR ALL LAYERS
    SAVE BUDGET
    PRINT BUDGET
 UBDSV1 SAVING "         STORAGE" ON UNIT   9 AT TIME STEP  1, STRESS PERIOD  48
 UBDSV2 SAVING "   CONSTANT HEAD" ON UNIT   9 AT TIME STEP  1, STRESS PERIOD  48
 UBDSV1 SAVING "FLOW RIGHT FACE " ON UNIT   9 AT TIME STEP  1, STRESS PERIOD  48
 UBDSV1 SAVING "FLOW FRONT FACE " ON UNIT   9 AT TIME STEP  1, STRESS PERIOD  48
 UBDSV1 SAVING "FLOW LOWER FACE " ON UNIT   9 AT TIME STEP  1, STRESS PERIOD  48
 UBDSV3 SAVING "        RECHARGE" ON UNIT   9 AT TIME STEP  1, STRESS PERIOD  48

 HEAD WILL BE SAVED ON UNIT   37 AT END OF TIME STEP    1, STRESS PERIOD   48

 DRAWDOWN WILL BE SAVED ON UNIT   38 AT END OF TIME STEP    1, STRESS PERIOD   48
1
  VOLUMETRIC BUDGET FOR ENTIRE MODEL AT END OF TIME STEP    1, STRESS PERIOD  48
  ------------------------------------------------------------------------------

     CUMULATIVE VOLUMES      L**3       RATES FOR THIS TIME STEP      L**3/T
     ------------------                 ------------------------

           IN:                                      IN:
           ---                                      ---
             STORAGE =        9458.8594               STORAGE =       2.0397E-04
       CONSTANT HEAD =       14169.0889         CONSTANT HEAD =       1.8339E-03
            RECHARGE =         582.3799              RECHARGE =       1.0213E-04

            TOTAL IN =       24210.3301              TOTAL IN =       2.1400E-03

          OUT:                                     OUT:
          ----                                     ----
             STORAGE =        5027.4707               STORAGE =       9.4191E-04
       CONSTANT HEAD =       19183.5098         CONSTANT HEAD =       1.1982E-03
            RECHARGE =           0.0000              RECHARGE =           0.0000

           TOTAL OUT =       24210.9805             TOTAL OUT =       2.1401E-03

            IN - OUT =          -0.6504              IN - OUT =      -1.0477E-07

 PERCENT DISCREPANCY =          -0.00     PERCENT DISCREPANCY =          -0.00






         TIME SUMMARY AT END OF TIME STEP    1 IN STRESS PERIOD   48
                    SECONDS     MINUTES      HOURS       DAYS        YEARS
                    -----------------------------------------------------------
   TIME STEP LENGTH  86400.      1440.0      24.000      1.0000     2.73785E-03
 STRESS PERIOD TIME  86400.      1440.0      24.000      1.0000     2.73785E-03
         TOTAL TIME 5.70240E+06  95040.      1584.0      66.000     0.18070    
1
1
                            STRESS PERIOD NO.   49, LENGTH =   86400.00    
                            -----------------------------------------------

                              NUMBER OF TIME STEPS =     1

                               MULTIPLIER FOR DELT =     1.000

                            INITIAL TIME STEP SIZE =   86400.00    

 REUSING RECH FROM LAST STRESS PERIOD

 CHD NO.   LAYER   ROW   COL    START HEAD        END HEAD         IFACE           
 ----------------------------------------------------------------------------------
      1      4      3      1       109.7           109.6           0.000    
      2      5      3      1       109.7           109.6           0.000    
      3      4      3      2       109.7           109.6           0.000    
      4      5      3      2       109.7           109.6           0.000    
      5      4      3      3       109.7           109.6           0.000    
      6      5      3      3       109.7           109.6           0.000    
      7      4      3      4       109.7           109.6           0.000    
      8      5      3      4       109.7           109.6           0.000    
      9      4      3      5       109.7           109.6           0.000    
     10      5      3      5       109.7           109.6           0.000    
     11      4      3      6       109.7           109.6           0.000    
     12      5      3      6       109.7           109.6           0.000    
     13      4      3      7       109.7           109.6           0.000    
     14      5      3      7       109.7           109.6           0.000    
     15      4      3      8       109.7           109.6           0.000    
     16      5      3      8       109.7           109.6           0.000    
     17      4      2      8       109.7           109.6           0.000    
     18      5      2      8       109.7           109.6           0.000    
     19      4      2      9       109.7           109.6           0.000    
     20      5      2      9       109.7           109.6           0.000    
     21      4      2     10       109.7           109.6           0.000    
     22      5      2     10       109.7           109.6           0.000    
     23      4      2     11       109.7           109.6           0.000    
     24      5      2     11       109.7           109.6           0.000    
     25      4      2     12       109.7           109.6           0.000    
     26      5      2     12       109.7           109.6           0.000    
     27      4      2     13       109.7           109.6           0.000    
     28      5      2     13       109.7           109.6           0.000    
     29      4      2     14       109.7           109.6           0.000    
     30      5      2     14       109.7           109.6           0.000    
     31      4      2     15       109.7           109.6           0.000    
     32      5      2     15       109.7           109.6           0.000    
     33      4      2     16       109.7           109.6           0.000    
     34      5      2     16       109.7           109.6           0.000    
     35      4      2     17       109.7           109.6           0.000    
     36      5      2     17       109.7           109.6           0.000    
     37      4      2     18       109.7           109.6           0.000    
     38      5      2     18       109.7           109.6           0.000    
     39      4      2     19       109.7           109.6           0.000    
     40      5      2     19       109.7           109.6           0.000    
     41      4      2     20       109.7           109.6           0.000    
     42      5      2     20       109.7           109.6           0.000    
     43      4      2     21       109.7           109.6           0.000    
     44      5      2     21       109.7           109.6           0.000    
     45      4      2     22       109.7           109.6           0.000    
     46      5      2     22       109.7           109.6           0.000    
     47      4      2     23       109.7           109.6           0.000    
     48      5      2     23       109.7           109.6           0.000    
     49      4      2     24       109.7           109.6           0.000    
     50      5      2     24       109.7           109.6           0.000    
     51      4      2     25       109.7           109.6           0.000    
     52      5      2     25       109.7           109.6           0.000    
     53      4      2     26       109.7           109.6           0.000    
     54      5      2     26       109.7           109.6           0.000    
     55      4      1     26       109.7           109.6           0.000    
     56      5      1     26       109.7           109.6           0.000    
     57      4      1     27       109.7           109.6           0.000    
     58      5      1     27       109.7           109.6           0.000    
     59      4      1     28       109.7           109.6           0.000    
     60      5      1     28       109.7           109.6           0.000    
     61      4      1     29       109.7           109.6           0.000    
     62      5      1     29       109.7           109.6           0.000    
     63      4      1     30       109.7           109.6           0.000    
     64      5      1     30       109.7           109.6           0.000    
     65      4      1     31       109.7           109.6           0.000    
     66      5      1     31       109.7           109.6           0.000    
     67      4      1     32       109.7           109.6           0.000    
     68      5      1     32       109.7           109.6           0.000    
     69      4      1     33       109.7           109.6           0.000    
     70      5      1     33       109.7           109.6           0.000    
     71      4      1     34       109.7           109.6           0.000    
     72      5      1     34       109.7           109.6           0.000    
     73      4      1     35       109.7           109.6           0.000    
     74      5      1     35       109.7           109.6           0.000    
     75      4     36     35       109.6           109.3           0.000    
     76      5     36     35       109.6           109.3           0.000    
     77      4     35     34       109.6           109.3           0.000    
     78      5     35     34       109.6           109.3           0.000    
     79      4     36     34       109.6           109.3           0.000    
     80      5     36     34       109.6           109.3           0.000    
     81      4     36     33       109.6           109.3           0.000    
     82      5     36     33       109.6           109.3           0.000    
     83      4     36     32       109.6           109.3           0.000    
     84      5     36     32       109.6           109.3           0.000    
     85      4     37     32       109.6           109.3           0.000    
     86      5     37     32       109.6           109.3           0.000    
     87      4     37     31       109.6           109.3           0.000    
     88      5     37     31       109.6           109.3           0.000    
     89      4     38     31       109.6           109.3           0.000    
     90      5     38     31       109.6           109.3           0.000    
     91      4     38     30       109.6           109.3           0.000    
     92      5     38     30       109.6           109.3           0.000    
     93      4     39     30       109.6           109.3           0.000    
     94      5     39     30       109.6           109.3           0.000    
     95      4     39     29       109.6           109.3           0.000    
     96      5     39     29       109.6           109.3           0.000    
     97      4     40     29       109.6           109.3           0.000    
     98      5     40     29       109.6           109.3           0.000    
     99      4     40     28       109.6           109.3           0.000    
    100      5     40     28       109.6           109.3           0.000    
    101      4     40     27       109.6           109.3           0.000    
    102      5     40     27       109.6           109.3           0.000    
    103      4     41     27       109.6           109.3           0.000    
    104      5     41     27       109.6           109.3           0.000    
    105      4     41     26       109.6           109.3           0.000    
    106      5     41     26       109.6           109.3           0.000    
    107      4     41     25       109.6           109.3           0.000    
    108      5     41     25       109.6           109.3           0.000    
    109      4     41     24       109.6           109.3           0.000    
    110      5     41     24       109.6           109.3           0.000    
    111      4     41     23       109.5           109.3           0.000    
    112      5     41     23       109.5           109.3           0.000    
    113      4     41     22       109.5           109.3           0.000    
    114      5     41     22       109.5           109.3           0.000    
    115      4     42     22       109.5           109.3           0.000    
    116      5     42     22       109.5           109.3           0.000    
    117      4     42     21       109.5           109.3           0.000    
    118      5     42     21       109.5           109.3           0.000    
    119      4     42     20       109.5           109.3           0.000    
    120      5     42     20       109.5           109.3           0.000    
    121      4     42     19       109.5           109.3           0.000    
    122      5     42     19       109.5           109.3           0.000    
    123      4     43     18       109.5           109.3           0.000    
    124      5     43     18       109.5           109.3           0.000    
    125      4     42     18       109.5           109.3           0.000    
    126      5     42     18       109.5           109.3           0.000    
    127      4     42     17       109.5           109.3           0.000    
    128      5     42     17       109.5           109.3           0.000    
    129      4     42     16       109.5           109.3           0.000    
    130      5     42     16       109.5           109.3           0.000    
    131      4     42     15       109.5           109.3           0.000    
    132      5     42     15       109.5           109.3           0.000    
    133      4     43     15       109.5           109.3           0.000    
    134      5     43     15       109.5           109.3           0.000    
    135      4     43     14       109.5           109.3           0.000    
    136      5     43     14       109.5           109.3           0.000    
    137      4     43     13       109.5           109.3           0.000    
    138      5     43     13       109.5           109.3           0.000    
    139      4     43     12       109.5           109.3           0.000    
    140      5     43     12       109.5           109.3           0.000    
    141      4     43     11       109.5           109.3           0.000    
    142      5     43     11       109.5           109.3           0.000    
    143      4     43     10       109.5           109.3           0.000    
    144      5     43     10       109.5           109.3           0.000    
    145      4     44     10       109.5           109.3           0.000    
    146      5     44     10       109.5           109.3           0.000    
    147      4     44      9       109.5           109.3           0.000    
    148      5     44      9       109.5           109.3           0.000    
    149      4     44      8       109.5           109.3           0.000    
    150      5     44      8       109.5           109.3           0.000    
    151      4     44      7       109.5           109.3           0.000    
    152      5     44      7       109.5           109.3           0.000    
    153      4     44      6       109.5           109.3           0.000    
    154      5     44      6       109.5           109.3           0.000    
    155      4     44      5       109.5           109.3           0.000    
    156      5     44      5       109.5           109.3           0.000    
    157      4     44      4       109.5           109.3           0.000    
    158      5     44      4       109.5           109.3           0.000    
    159      4     44      3       109.5           109.3           0.000    
    160      5     44      3       109.5           109.3           0.000    
    161      4     45      3       109.5           109.3           0.000    
    162      5     45      3       109.5           109.3           0.000    
    163      4     45      2       109.5           109.3           0.000    
    164      5     45      2       109.5           109.3           0.000    
    165      4     45      1       109.5           109.3           0.000    
    166      5     45      1       109.5           109.3           0.000    


    166 TIME-VARIANT SPECIFIED-HEAD CELLS

 SOLVING FOR HEAD 


     4 CALLS TO PCG ROUTINE FOR TIME STEP   1 IN STRESS PERIOD   49
    76 TOTAL ITERATIONS

 MAXIMUM HEAD CHANGE FOR EACH ITERATION (1 INDICATES THE FIRST INNER ITERATION):

    HEAD CHANGE    HEAD CHANGE    HEAD CHANGE    HEAD CHANGE    HEAD CHANGE 
   LAYER,ROW,COL  LAYER,ROW,COL  LAYER,ROW,COL  LAYER,ROW,COL  LAYER,ROW,COL
 ---------------------------------------------------------------------------
  1 -0.6930      0  0.3871      0 -0.2232      0  0.1914      0 -0.2585    
   (  5, 43,  5)  (  5, 35,  1)  (  5, 30,  2)  (  5, 41,  2)  (  5, 37,  1)
  0 -0.1385      0 -0.1662      0  0.1800      0  0.1023      0  0.7943E-01
   (  5, 39,  1)  (  5, 40,  1)  (  5, 37,  1)  (  5, 37,  6)  (  5, 40,  1)
  0  0.6630E-01  0 -0.5874E-01  0 -0.2413E-01  0  0.4242E-01  0 -0.3793E-01
   (  5, 35,  9)  (  5, 33,  9)  (  5, 30,  1)  (  5, 30,  8)  (  5, 36,  8)
  0  0.2166E-01  0  0.1541E-01  0  0.1428E-01  0  0.1231E-01  0  0.1124E-01
   (  5, 33,  8)  (  5, 36,  4)  (  5, 15,  1)  (  5, 30, 10)  (  5, 38,  4)
  0 -0.7891E-02  0 -0.6383E-02  0  0.3054E-02  0 -0.6101E-02  0  0.5039E-02
   (  5, 37,  1)  (  5, 33,  7)  (  5, 32,  3)  (  5, 14,  1)  (  5, 13,  1)
  0  0.3595E-02  0 -0.2285E-02  0 -0.1513E-02  0  0.1055E-02  0 -0.1422E-02
   (  5, 37,  1)  (  5, 40,  2)  (  5, 33,  4)  (  5, 36,  3)  (  5, 36,  1)
  1 -0.8749E-03  0  0.8511E-03  0 -0.1329E-02  0  0.1197E-02  0 -0.1032E-02
   (  5, 19,  9)  (  5, 26,  1)  (  5, 35,  3)  (  5, 32,  3)  (  5, 34,  3)
  0  0.8068E-03  0 -0.8071E-03  0  0.8429E-03  0 -0.4421E-03  0 -0.3536E-03
   (  5, 25,  7)  (  5, 39,  4)  (  5, 37,  1)  (  5, 39,  1)  (  5, 36,  7)
  0 -0.3110E-03  0  0.2196E-03  0  0.1698E-03  0 -0.2199E-03  0  0.9562E-04
   (  5, 39,  2)  (  5, 41,  2)  (  5, 32,  4)  (  5, 40,  2)  (  5, 25, 11)
  0 -0.8974E-04  0 -0.1026E-03  0 -0.7866E-04  0 -0.7185E-04  0 -0.5199E-04
   (  5, 35,  3)  (  5, 32,  8)  (  5, 14,  1)  (  5, 41,  1)  (  5, 36,  9)
  0 -0.2449E-04  0  0.3679E-04  0  0.3131E-04  0 -0.2679E-04  0  0.1790E-04
   (  5, 32,  1)  (  5, 33,  6)  (  5, 36,  1)  (  5, 38,  1)  (  5, 40,  6)
  0  0.1486E-04  0 -0.6872E-05  0  0.8873E-05  0  0.5761E-05  0 -0.3204E-05
   (  5, 38,  1)  (  5, 40,  1)  (  5, 37,  1)  (  5, 32,  1)  (  5, 30,  1)
  1  0.3695E-05  0 -0.6988E-05  0  0.5832E-05  0  0.7653E-05  0 -0.4911E-05
   (  5, 28,  3)  (  5, 31,  1)  (  5, 34,  3)  (  5, 15,  1)  (  5, 22,  4)
  0  0.3408E-05  0 -0.4009E-05  0 -0.3179E-05  0  0.2413E-05  0  0.1974E-05
   (  5, 25,  5)  (  5, 39,  2)  (  5, 36,  7)  (  5, 36,  5)  (  5, 38,  1)
  0 -0.1033E-05  0  0.1295E-05  0  0.1177E-05  0 -0.1006E-05  0 -0.4956E-06
   (  5, 31,  5)  (  5, 32,  1)  (  5, 41,  1)  (  5, 34,  8)  (  5, 36,  4)
  1  0.4121E-06
   (  5, 37,  2)

 MAXIMUM RESIDUAL FOR EACH ITERATION (1 INDICATES THE FIRST INNER ITERATION):

    RESIDUAL       RESIDUAL       RESIDUAL       RESIDUAL       RESIDUAL    
   LAYER,ROW,COL  LAYER,ROW,COL  LAYER,ROW,COL  LAYER,ROW,COL  LAYER,ROW,COL
 ---------------------------------------------------------------------------
  1  0.3487E-02  0  0.2654E-02  0  0.2241E-02  0  0.1958E-02  0  0.1648E-02
   (  4, 44,  2)  (  4, 44,  2)  (  4, 44,  2)  (  4, 35, 35)  (  4, 35, 35)
  0  0.1399E-02  0  0.1184E-02  0  0.9444E-03  0  0.7581E-03  0  0.5814E-03
   (  3, 40, 27)  (  3, 40, 27)  (  3, 40, 27)  (  3, 40, 27)  (  3, 40, 27)
  0  0.4362E-03  0 -0.3506E-03  0 -0.3356E-03  0 -0.2713E-03  0 -0.2110E-03
   (  4, 35, 35)  (  3, 35, 35)  (  3, 35, 35)  (  3, 35, 35)  (  3, 35, 35)
  0 -0.1701E-03  0 -0.1533E-03  0 -0.1171E-03  0 -0.9846E-04  0 -0.8293E-04
   (  3, 35, 35)  (  4, 43,  4)  (  4, 34, 35)  (  4, 34, 35)  (  4, 34, 35)
  0 -0.7669E-04  0 -0.6334E-04  0 -0.6136E-04  0 -0.4863E-04  0 -0.3856E-04
   (  4, 34, 35)  (  4, 34, 35)  (  4, 34, 35)  (  4, 34, 35)  (  4, 34, 35)
  0 -0.3124E-04  0 -0.2770E-04  0 -0.2137E-04  0 -0.1996E-04  0 -0.1422E-04
   (  4, 34, 35)  (  4, 34, 35)  (  4, 34, 35)  (  4, 34, 35)  (  4, 34, 35)
  1 -0.1308E-04  0 -0.1233E-04  0 -0.9996E-05  0 -0.8616E-05  0 -0.6438E-05
   (  4, 34, 35)  (  4, 34, 35)  (  4, 34, 35)  (  4, 34, 35)  (  4, 34, 35)
  0 -0.4316E-05  0 -0.3414E-05  0  0.2693E-05  0  0.2169E-05  0  0.1850E-05
   (  4, 34, 35)  (  4, 34, 35)  (  4, 35, 35)  (  4, 35, 35)  (  4, 35, 35)
  0  0.1550E-05  0  0.1410E-05  0  0.1313E-05  0  0.1121E-05  0  0.9217E-06
   (  4, 35, 35)  (  4, 35, 35)  (  4, 35, 35)  (  4, 35, 35)  (  4, 35, 35)
  0  0.8324E-06  0  0.7151E-06  0  0.5211E-06  0  0.3696E-06  0  0.2732E-06
   (  4, 35, 35)  (  4, 35, 35)  (  4, 35, 35)  (  4, 35, 35)  (  4, 35, 35)
  0  0.2525E-06  0  0.2009E-06  0  0.1671E-06  0  0.1156E-06  0 -0.8253E-07
   (  4, 35, 35)  (  4, 35, 35)  (  4, 35, 35)  (  4, 35, 35)  (  4, 34, 35)
  0  0.5659E-07  0  0.4991E-07  0  0.3549E-07  0  0.2829E-07  0  0.2611E-07
   (  4, 35, 35)  (  4, 35, 35)  (  4, 35, 35)  (  4, 35, 35)  (  4, 35, 35)
  1 -0.3889E-07  0 -0.3575E-07  0 -0.3330E-07  0  0.2170E-07  0  0.1665E-07
   (  3, 43,  7)  (  3, 43,  7)  (  3, 43,  7)  (  2, 43,  7)  (  2, 43,  7)
  0 -0.1257E-07  0  0.1058E-07  0  0.9578E-08  0  0.8451E-08  0  0.7392E-08
   (  3, 43,  7)  (  4, 35, 35)  (  4, 35, 35)  (  4, 35, 35)  (  4, 35, 35)
  0  0.6971E-08  0  0.5788E-08  0  0.4483E-08  0  0.3670E-08  0  0.3335E-08
   (  4, 35, 35)  (  4, 35, 35)  (  4, 35, 35)  (  4, 35, 35)  (  4, 35, 35)
  1  0.3286E-08
   (  4, 35, 35)



 OUTPUT CONTROL FOR STRESS PERIOD   49   TIME STEP    1
    SAVE HEAD FOR ALL LAYERS
    SAVE DRAWDOWN FOR ALL LAYERS
    SAVE BUDGET
    PRINT BUDGET
 UBDSV1 SAVING "         STORAGE" ON UNIT   9 AT TIME STEP  1, STRESS PERIOD  49
 UBDSV2 SAVING "   CONSTANT HEAD" ON UNIT   9 AT TIME STEP  1, STRESS PERIOD  49
 UBDSV1 SAVING "FLOW RIGHT FACE " ON UNIT   9 AT TIME STEP  1, STRESS PERIOD  49
 UBDSV1 SAVING "FLOW FRONT FACE " ON UNIT   9 AT TIME STEP  1, STRESS PERIOD  49
 UBDSV1 SAVING "FLOW LOWER FACE " ON UNIT   9 AT TIME STEP  1, STRESS PERIOD  49
 UBDSV3 SAVING "        RECHARGE" ON UNIT   9 AT TIME STEP  1, STRESS PERIOD  49

 HEAD WILL BE SAVED ON UNIT   37 AT END OF TIME STEP    1, STRESS PERIOD   49

 DRAWDOWN WILL BE SAVED ON UNIT   38 AT END OF TIME STEP    1, STRESS PERIOD   49
1
  VOLUMETRIC BUDGET FOR ENTIRE MODEL AT END OF TIME STEP    1, STRESS PERIOD  49
  ------------------------------------------------------------------------------

     CUMULATIVE VOLUMES      L**3       RATES FOR THIS TIME STEP      L**3/T
     ------------------                 ------------------------

           IN:                                      IN:
           ---                                      ---
             STORAGE =        9841.8408               STORAGE =       4.4327E-03
       CONSTANT HEAD =       14301.2109         CONSTANT HEAD =       1.5292E-03
            RECHARGE =         591.2039              RECHARGE =       1.0213E-04

            TOTAL IN =       24734.2539              TOTAL IN =       6.0640E-03

          OUT:                                     OUT:
          ----                                     ----
             STORAGE =        5027.4707               STORAGE =           0.0000
       CONSTANT HEAD =       19707.4473         CONSTANT HEAD =       6.0641E-03
            RECHARGE =           0.0000              RECHARGE =           0.0000

           TOTAL OUT =       24734.9180             TOTAL OUT =       6.0641E-03

            IN - OUT =          -0.6641              IN - OUT =      -1.1036E-07

 PERCENT DISCREPANCY =          -0.00     PERCENT DISCREPANCY =          -0.00






         TIME SUMMARY AT END OF TIME STEP    1 IN STRESS PERIOD   49
                    SECONDS     MINUTES      HOURS       DAYS        YEARS
                    -----------------------------------------------------------
   TIME STEP LENGTH  86400.      1440.0      24.000      1.0000     2.73785E-03
 STRESS PERIOD TIME  86400.      1440.0      24.000      1.0000     2.73785E-03
         TOTAL TIME 5.78880E+06  96480.      1608.0      67.000     0.18344    
1
1
                            STRESS PERIOD NO.   50, LENGTH =   86400.00    
                            -----------------------------------------------

                              NUMBER OF TIME STEPS =     1

                               MULTIPLIER FOR DELT =     1.000

                            INITIAL TIME STEP SIZE =   86400.00    

 REUSING RECH FROM LAST STRESS PERIOD

 CHD NO.   LAYER   ROW   COL    START HEAD        END HEAD         IFACE           
 ----------------------------------------------------------------------------------
      1      4      3      1       109.6           109.5           0.000    
      2      5      3      1       109.6           109.5           0.000    
      3      4      3      2       109.6           109.5           0.000    
      4      5      3      2       109.6           109.5           0.000    
      5      4      3      3       109.6           109.5           0.000    
      6      5      3      3       109.6           109.5           0.000    
      7      4      3      4       109.6           109.5           0.000    
      8      5      3      4       109.6           109.5           0.000    
      9      4      3      5       109.6           109.5           0.000    
     10      5      3      5       109.6           109.5           0.000    
     11      4      3      6       109.6           109.5           0.000    
     12      5      3      6       109.6           109.5           0.000    
     13      4      3      7       109.6           109.5           0.000    
     14      5      3      7       109.6           109.5           0.000    
     15      4      3      8       109.6           109.5           0.000    
     16      5      3      8       109.6           109.5           0.000    
     17      4      2      8       109.6           109.5           0.000    
     18      5      2      8       109.6           109.5           0.000    
     19      4      2      9       109.6           109.5           0.000    
     20      5      2      9       109.6           109.5           0.000    
     21      4      2     10       109.6           109.5           0.000    
     22      5      2     10       109.6           109.5           0.000    
     23      4      2     11       109.6           109.5           0.000    
     24      5      2     11       109.6           109.5           0.000    
     25      4      2     12       109.6           109.5           0.000    
     26      5      2     12       109.6           109.5           0.000    
     27      4      2     13       109.6           109.5           0.000    
     28      5      2     13       109.6           109.5           0.000    
     29      4      2     14       109.6           109.5           0.000    
     30      5      2     14       109.6           109.5           0.000    
     31      4      2     15       109.6           109.5           0.000    
     32      5      2     15       109.6           109.5           0.000    
     33      4      2     16       109.6           109.5           0.000    
     34      5      2     16       109.6           109.5           0.000    
     35      4      2     17       109.6           109.5           0.000    
     36      5      2     17       109.6           109.5           0.000    
     37      4      2     18       109.6           109.5           0.000    
     38      5      2     18       109.6           109.5           0.000    
     39      4      2     19       109.6           109.5           0.000    
     40      5      2     19       109.6           109.5           0.000    
     41      4      2     20       109.6           109.5           0.000    
     42      5      2     20       109.6           109.5           0.000    
     43      4      2     21       109.6           109.5           0.000    
     44      5      2     21       109.6           109.5           0.000    
     45      4      2     22       109.6           109.5           0.000    
     46      5      2     22       109.6           109.5           0.000    
     47      4      2     23       109.6           109.5           0.000    
     48      5      2     23       109.6           109.5           0.000    
     49      4      2     24       109.6           109.5           0.000    
     50      5      2     24       109.6           109.5           0.000    
     51      4      2     25       109.6           109.5           0.000    
     52      5      2     25       109.6           109.5           0.000    
     53      4      2     26       109.6           109.5           0.000    
     54      5      2     26       109.6           109.5           0.000    
     55      4      1     26       109.6           109.5           0.000    
     56      5      1     26       109.6           109.5           0.000    
     57      4      1     27       109.6           109.5           0.000    
     58      5      1     27       109.6           109.5           0.000    
     59      4      1     28       109.6           109.5           0.000    
     60      5      1     28       109.6           109.5           0.000    
     61      4      1     29       109.6           109.5           0.000    
     62      5      1     29       109.6           109.5           0.000    
     63      4      1     30       109.6           109.5           0.000    
     64      5      1     30       109.6           109.5           0.000    
     65      4      1     31       109.6           109.5           0.000    
     66      5      1     31       109.6           109.5           0.000    
     67      4      1     32       109.6           109.5           0.000    
     68      5      1     32       109.6           109.5           0.000    
     69      4      1     33       109.6           109.5           0.000    
     70      5      1     33       109.6           109.5           0.000    
     71      4      1     34       109.6           109.5           0.000    
     72      5      1     34       109.6           109.5           0.000    
     73      4      1     35       109.6           109.5           0.000    
     74      5      1     35       109.6           109.5           0.000    
     75      4     36     35       109.3           109.3           0.000    
     76      5     36     35       109.3           109.3           0.000    
     77      4     35     34       109.3           109.3           0.000    
     78      5     35     34       109.3           109.3           0.000    
     79      4     36     34       109.3           109.3           0.000    
     80      5     36     34       109.3           109.3           0.000    
     81      4     36     33       109.3           109.3           0.000    
     82      5     36     33       109.3           109.3           0.000    
     83      4     36     32       109.3           109.2           0.000    
     84      5     36     32       109.3           109.2           0.000    
     85      4     37     32       109.3           109.2           0.000    
     86      5     37     32       109.3           109.2           0.000    
     87      4     37     31       109.3           109.2           0.000    
     88      5     37     31       109.3           109.2           0.000    
     89      4     38     31       109.3           109.2           0.000    
     90      5     38     31       109.3           109.2           0.000    
     91      4     38     30       109.3           109.2           0.000    
     92      5     38     30       109.3           109.2           0.000    
     93      4     39     30       109.3           109.2           0.000    
     94      5     39     30       109.3           109.2           0.000    
     95      4     39     29       109.3           109.2           0.000    
     96      5     39     29       109.3           109.2           0.000    
     97      4     40     29       109.3           109.2           0.000    
     98      5     40     29       109.3           109.2           0.000    
     99      4     40     28       109.3           109.2           0.000    
    100      5     40     28       109.3           109.2           0.000    
    101      4     40     27       109.3           109.2           0.000    
    102      5     40     27       109.3           109.2           0.000    
    103      4     41     27       109.3           109.2           0.000    
    104      5     41     27       109.3           109.2           0.000    
    105      4     41     26       109.3           109.2           0.000    
    106      5     41     26       109.3           109.2           0.000    
    107      4     41     25       109.3           109.2           0.000    
    108      5     41     25       109.3           109.2           0.000    
    109      4     41     24       109.3           109.2           0.000    
    110      5     41     24       109.3           109.2           0.000    
    111      4     41     23       109.3           109.2           0.000    
    112      5     41     23       109.3           109.2           0.000    
    113      4     41     22       109.3           109.2           0.000    
    114      5     41     22       109.3           109.2           0.000    
    115      4     42     22       109.3           109.2           0.000    
    116      5     42     22       109.3           109.2           0.000    
    117      4     42     21       109.3           109.2           0.000    
    118      5     42     21       109.3           109.2           0.000    
    119      4     42     20       109.3           109.2           0.000    
    120      5     42     20       109.3           109.2           0.000    
    121      4     42     19       109.3           109.2           0.000    
    122      5     42     19       109.3           109.2           0.000    
    123      4     43     18       109.3           109.2           0.000    
    124      5     43     18       109.3           109.2           0.000    
    125      4     42     18       109.3           109.2           0.000    
    126      5     42     18       109.3           109.2           0.000    
    127      4     42     17       109.3           109.2           0.000    
    128      5     42     17       109.3           109.2           0.000    
    129      4     42     16       109.3           109.2           0.000    
    130      5     42     16       109.3           109.2           0.000    
    131      4     42     15       109.3           109.2           0.000    
    132      5     42     15       109.3           109.2           0.000    
    133      4     43     15       109.3           109.2           0.000    
    134      5     43     15       109.3           109.2           0.000    
    135      4     43     14       109.3           109.2           0.000    
    136      5     43     14       109.3           109.2           0.000    
    137      4     43     13       109.3           109.2           0.000    
    138      5     43     13       109.3           109.2           0.000    
    139      4     43     12       109.3           109.2           0.000    
    140      5     43     12       109.3           109.2           0.000    
    141      4     43     11       109.3           109.2           0.000    
    142      5     43     11       109.3           109.2           0.000    
    143      4     43     10       109.3           109.2           0.000    
    144      5     43     10       109.3           109.2           0.000    
    145      4     44     10       109.3           109.2           0.000    
    146      5     44     10       109.3           109.2           0.000    
    147      4     44      9       109.3           109.2           0.000    
    148      5     44      9       109.3           109.2           0.000    
    149      4     44      8       109.3           109.2           0.000    
    150      5     44      8       109.3           109.2           0.000    
    151      4     44      7       109.3           109.2           0.000    
    152      5     44      7       109.3           109.2           0.000    
    153      4     44      6       109.3           109.2           0.000    
    154      5     44      6       109.3           109.2           0.000    
    155      4     44      5       109.3           109.2           0.000    
    156      5     44      5       109.3           109.2           0.000    
    157      4     44      4       109.3           109.2           0.000    
    158      5     44      4       109.3           109.2           0.000    
    159      4     44      3       109.3           109.2           0.000    
    160      5     44      3       109.3           109.2           0.000    
    161      4     45      3       109.3           109.2           0.000    
    162      5     45      3       109.3           109.2           0.000    
    163      4     45      2       109.3           109.2           0.000    
    164      5     45      2       109.3           109.2           0.000    
    165      4     45      1       109.3           109.2           0.000    
    166      5     45      1       109.3           109.2           0.000    


    166 TIME-VARIANT SPECIFIED-HEAD CELLS

 SOLVING FOR HEAD 


     4 CALLS TO PCG ROUTINE FOR TIME STEP   1 IN STRESS PERIOD   50
    70 TOTAL ITERATIONS

 MAXIMUM HEAD CHANGE FOR EACH ITERATION (1 INDICATES THE FIRST INNER ITERATION):

    HEAD CHANGE    HEAD CHANGE    HEAD CHANGE    HEAD CHANGE    HEAD CHANGE 
   LAYER,ROW,COL  LAYER,ROW,COL  LAYER,ROW,COL  LAYER,ROW,COL  LAYER,ROW,COL
 ---------------------------------------------------------------------------
  1 -0.3144      0  0.1588      0  0.9836E-01  0  0.8296E-01  0 -0.1056    
   (  5, 43,  6)  (  5, 34,  1)  (  5, 39,  2)  (  5, 41,  2)  (  5, 37,  1)
  0 -0.6187E-01  0 -0.6541E-01  0  0.7548E-01  0  0.4315E-01  0  0.3482E-01
   (  5, 39,  1)  (  5, 40,  1)  (  5, 37,  1)  (  5, 37,  6)  (  5, 40,  1)
  0  0.3054E-01  0 -0.3152E-01  0  0.1267E-01  0  0.1859E-01  0 -0.1313E-01
   (  5, 35,  9)  (  5, 32,  9)  (  5, 30,  3)  (  5, 30,  9)  (  5, 36,  8)
  0  0.8034E-02  0 -0.7462E-02  0  0.6931E-02  0 -0.5257E-02  0  0.4980E-02
   (  5, 37,  1)  (  5, 34,  1)  (  5, 36,  4)  (  5, 38,  7)  (  5, 38,  4)
  0 -0.3198E-02  0 -0.2967E-02  0  0.1580E-02  0 -0.2072E-02  0  0.1740E-02
   (  5, 37,  1)  (  5, 34,  7)  (  5, 33,  4)  (  5, 30,  1)  (  5, 13,  1)
  0  0.1345E-02  0 -0.8947E-03  0  0.7865E-03  0 -0.6139E-03  0 -0.4800E-03
   (  5, 37,  1)  (  5, 39,  2)  (  5, 36,  3)  (  5, 34,  4)  (  5, 36,  1)
  1  0.1117E-02  0 -0.7902E-03  0  0.9678E-03  0  0.1324E-02  0  0.1121E-02
   (  5, 36,  2)  (  5, 30,  1)  (  5, 26,  2)  (  5, 32,  3)  (  5, 35,  1)
  0  0.7285E-03  0  0.5182E-03  0  0.5234E-03  0  0.4561E-03  0 -0.3086E-03
   (  5, 37,  1)  (  5, 24,  7)  (  5, 38,  6)  (  5, 41,  2)  (  5, 39,  1)
  0  0.2059E-03  0  0.1986E-03  0  0.9880E-04  0  0.7695E-04  0  0.1009E-03
   (  5, 36,  1)  (  5, 33,  4)  (  5, 25, 12)  (  5, 28,  4)  (  5, 33,  1)
  0 -0.8236E-04  0  0.5131E-04  0  0.4735E-04  0 -0.2961E-04  0  0.3088E-04
   (  5, 31,  8)  (  5, 29,  9)  (  5, 34,  3)  (  5, 30,  1)  (  5, 27, 11)
  0  0.2204E-04  0 -0.1388E-04  0  0.1513E-04  0 -0.1320E-04  0  0.7438E-05
   (  5, 36,  7)  (  5, 34,  4)  (  5, 33,  1)  (  5, 27,  1)  (  5, 26,  3)
  0  0.6002E-05  0 -0.5938E-05  0  0.3900E-05  0 -0.2785E-05  0 -0.1824E-05
   (  5, 12,  1)  (  5, 15,  1)  (  5, 14,  1)  (  5, 14,  1)  (  5, 38,  3)
  1 -0.2750E-05  0  0.1824E-05  0 -0.2913E-05  0 -0.3356E-05  0  0.2005E-05
   (  5, 30,  2)  (  5, 27,  3)  (  5, 26,  4)  (  5, 36,  1)  (  5, 37,  9)
  0 -0.2345E-05  0  0.1498E-05  0  0.1109E-05  0  0.8764E-06  1 -0.5522E-06
   (  5, 32,  9)  (  5, 29,  9)  (  5, 31,  6)  (  5, 35,  1)  (  5, 38,  3)

 MAXIMUM RESIDUAL FOR EACH ITERATION (1 INDICATES THE FIRST INNER ITERATION):

    RESIDUAL       RESIDUAL       RESIDUAL       RESIDUAL       RESIDUAL    
   LAYER,ROW,COL  LAYER,ROW,COL  LAYER,ROW,COL  LAYER,ROW,COL  LAYER,ROW,COL
 ---------------------------------------------------------------------------
  1  0.9515E-03  0  0.8114E-03  0  0.7468E-03  0  0.6635E-03  0  0.5437E-03
   (  4, 44,  2)  (  4, 35, 35)  (  4, 35, 35)  (  4, 35, 35)  (  4, 35, 35)
  0  0.4390E-03  0 -0.3645E-03  0 -0.3160E-03  0 -0.2608E-03  0 -0.2212E-03
   (  4, 35, 35)  (  4, 43,  6)  (  4, 43,  5)  (  4, 43,  4)  (  4, 43,  4)
  0 -0.1760E-03  0 -0.1454E-03  0 -0.1369E-03  0 -0.1075E-03  0 -0.9062E-04
   (  4, 43,  4)  (  4, 43,  4)  (  4, 43,  4)  (  4, 44,  2)  (  4, 44,  2)
  0 -0.7687E-04  0 -0.7036E-04  0 -0.5508E-04  0 -0.4397E-04  0 -0.3331E-04
   (  4, 44,  2)  (  4, 44,  2)  (  4, 44,  2)  (  4, 44,  2)  (  4, 44,  2)
  0 -0.2923E-04  0 -0.2184E-04  0 -0.2010E-04  0 -0.1485E-04  0 -0.1145E-04
   (  4, 44,  2)  (  4, 44,  2)  (  4, 44,  2)  (  4, 34, 35)  (  4, 34, 35)
  0 -0.8960E-05  0 -0.7913E-05  0 -0.6395E-05  0 -0.5643E-05  0 -0.4051E-05
   (  4, 34, 35)  (  4, 34, 35)  (  4, 34, 35)  (  4, 34, 35)  (  4, 34, 35)
  1 -0.3887E-05  0 -0.3583E-05  0 -0.3299E-05  0 -0.2870E-05  0 -0.3087E-05
   (  4, 34, 35)  (  4, 34, 35)  (  4, 43,  3)  (  4, 43,  3)  (  4, 40,  1)
  0 -0.3103E-05  0 -0.2666E-05  0 -0.1991E-05  0 -0.1838E-05  0 -0.1449E-05
   (  4, 40,  1)  (  4, 40,  1)  (  4, 41,  1)  (  4, 43,  1)  (  4, 43,  1)
  0 -0.1136E-05  0  0.7821E-06  0  0.7507E-06  0  0.7334E-06  0  0.6303E-06
   (  4, 43,  1)  (  4, 43,  2)  (  4, 43,  2)  (  4, 43,  2)  (  4, 43,  2)
  0  0.5164E-06  0  0.3971E-06  0  0.3701E-06  0  0.3339E-06  0  0.2659E-06
   (  4, 43,  2)  (  4, 44,  2)  (  4, 44,  2)  (  4, 44,  2)  (  4, 44,  2)
  0  0.1906E-06  0  0.1394E-06  0  0.1095E-06  0 -0.7987E-07  0 -0.7053E-07
   (  4, 44,  2)  (  4, 44,  2)  (  4, 44,  2)  (  4, 42,  2)  (  4, 42,  2)
  0 -0.6014E-07  0 -0.4819E-07  0 -0.3632E-07  0 -0.2411E-07  0 -0.1676E-07
   (  4, 43,  2)  (  4, 43,  2)  (  4, 43,  2)  (  4, 43,  2)  (  4, 43,  2)
  1 -0.5023E-07  0 -0.4734E-07  0 -0.3873E-07  0 -0.2762E-07  0 -0.1720E-07
   (  3, 40,  4)  (  3, 40,  4)  (  3, 40,  4)  (  3, 40,  4)  (  3, 40,  4)
  0 -0.8573E-08  0 -0.5911E-08  0 -0.4924E-08  0 -0.4338E-08  1 -0.3824E-08
   (  3, 40,  4)  (  4, 38,  4)  (  4, 38,  4)  (  4, 38,  4)  (  4, 38,  4)



 OUTPUT CONTROL FOR STRESS PERIOD   50   TIME STEP    1
    SAVE HEAD FOR ALL LAYERS
    SAVE DRAWDOWN FOR ALL LAYERS
    SAVE BUDGET
    PRINT BUDGET
 UBDSV1 SAVING "         STORAGE" ON UNIT   9 AT TIME STEP  1, STRESS PERIOD  50
 UBDSV2 SAVING "   CONSTANT HEAD" ON UNIT   9 AT TIME STEP  1, STRESS PERIOD  50
 UBDSV1 SAVING "FLOW RIGHT FACE " ON UNIT   9 AT TIME STEP  1, STRESS PERIOD  50
 UBDSV1 SAVING "FLOW FRONT FACE " ON UNIT   9 AT TIME STEP  1, STRESS PERIOD  50
 UBDSV1 SAVING "FLOW LOWER FACE " ON UNIT   9 AT TIME STEP  1, STRESS PERIOD  50
 UBDSV3 SAVING "        RECHARGE" ON UNIT   9 AT TIME STEP  1, STRESS PERIOD  50

 HEAD WILL BE SAVED ON UNIT   37 AT END OF TIME STEP    1, STRESS PERIOD   50

 DRAWDOWN WILL BE SAVED ON UNIT   38 AT END OF TIME STEP    1, STRESS PERIOD   50
1
  VOLUMETRIC BUDGET FOR ENTIRE MODEL AT END OF TIME STEP    1, STRESS PERIOD  50
  ------------------------------------------------------------------------------

     CUMULATIVE VOLUMES      L**3       RATES FOR THIS TIME STEP      L**3/T
     ------------------                 ------------------------

           IN:                                      IN:
           ---                                      ---
             STORAGE =       10170.4287               STORAGE =       3.8031E-03
       CONSTANT HEAD =       14419.6416         CONSTANT HEAD =       1.3707E-03
            RECHARGE =         600.0278              RECHARGE =       1.0213E-04

            TOTAL IN =       25190.0977              TOTAL IN =       5.2760E-03

          OUT:                                     OUT:
          ----                                     ----
             STORAGE =        5027.4707               STORAGE =           0.0000
       CONSTANT HEAD =       20163.2988         CONSTANT HEAD =       5.2761E-03
            RECHARGE =           0.0000              RECHARGE =           0.0000

           TOTAL OUT =       25190.7695             TOTAL OUT =       5.2761E-03

            IN - OUT =          -0.6719              IN - OUT =      -1.0245E-07

 PERCENT DISCREPANCY =          -0.00     PERCENT DISCREPANCY =          -0.00






         TIME SUMMARY AT END OF TIME STEP    1 IN STRESS PERIOD   50
                    SECONDS     MINUTES      HOURS       DAYS        YEARS
                    -----------------------------------------------------------
   TIME STEP LENGTH  86400.      1440.0      24.000      1.0000     2.73785E-03
 STRESS PERIOD TIME  86400.      1440.0      24.000      1.0000     2.73785E-03
         TOTAL TIME 5.87520E+06  97920.      1632.0      68.000     0.18617    
1
1
                            STRESS PERIOD NO.   51, LENGTH =   86400.00    
                            -----------------------------------------------

                              NUMBER OF TIME STEPS =     1

                               MULTIPLIER FOR DELT =     1.000

                            INITIAL TIME STEP SIZE =   86400.00    

 REUSING RECH FROM LAST STRESS PERIOD

 CHD NO.   LAYER   ROW   COL    START HEAD        END HEAD         IFACE           
 ----------------------------------------------------------------------------------
      1      4      3      1       109.5           109.5           0.000    
      2      5      3      1       109.5           109.5           0.000    
      3      4      3      2       109.5           109.5           0.000    
      4      5      3      2       109.5           109.5           0.000    
      5      4      3      3       109.5           109.5           0.000    
      6      5      3      3       109.5           109.5           0.000    
      7      4      3      4       109.5           109.5           0.000    
      8      5      3      4       109.5           109.5           0.000    
      9      4      3      5       109.5           109.5           0.000    
     10      5      3      5       109.5           109.5           0.000    
     11      4      3      6       109.5           109.5           0.000    
     12      5      3      6       109.5           109.5           0.000    
     13      4      3      7       109.5           109.5           0.000    
     14      5      3      7       109.5           109.5           0.000    
     15      4      3      8       109.5           109.5           0.000    
     16      5      3      8       109.5           109.5           0.000    
     17      4      2      8       109.5           109.5           0.000    
     18      5      2      8       109.5           109.5           0.000    
     19      4      2      9       109.5           109.5           0.000    
     20      5      2      9       109.5           109.5           0.000    
     21      4      2     10       109.5           109.5           0.000    
     22      5      2     10       109.5           109.5           0.000    
     23      4      2     11       109.5           109.5           0.000    
     24      5      2     11       109.5           109.5           0.000    
     25      4      2     12       109.5           109.5           0.000    
     26      5      2     12       109.5           109.5           0.000    
     27      4      2     13       109.5           109.5           0.000    
     28      5      2     13       109.5           109.5           0.000    
     29      4      2     14       109.5           109.5           0.000    
     30      5      2     14       109.5           109.5           0.000    
     31      4      2     15       109.5           109.5           0.000    
     32      5      2     15       109.5           109.5           0.000    
     33      4      2     16       109.5           109.5           0.000    
     34      5      2     16       109.5           109.5           0.000    
     35      4      2     17       109.5           109.5           0.000    
     36      5      2     17       109.5           109.5           0.000    
     37      4      2     18       109.5           109.5           0.000    
     38      5      2     18       109.5           109.5           0.000    
     39      4      2     19       109.5           109.5           0.000    
     40      5      2     19       109.5           109.5           0.000    
     41      4      2     20       109.5           109.5           0.000    
     42      5      2     20       109.5           109.5           0.000    
     43      4      2     21       109.5           109.5           0.000    
     44      5      2     21       109.5           109.5           0.000    
     45      4      2     22       109.5           109.5           0.000    
     46      5      2     22       109.5           109.5           0.000    
     47      4      2     23       109.5           109.5           0.000    
     48      5      2     23       109.5           109.5           0.000    
     49      4      2     24       109.5           109.5           0.000    
     50      5      2     24       109.5           109.5           0.000    
     51      4      2     25       109.5           109.5           0.000    
     52      5      2     25       109.5           109.5           0.000    
     53      4      2     26       109.5           109.5           0.000    
     54      5      2     26       109.5           109.5           0.000    
     55      4      1     26       109.5           109.5           0.000    
     56      5      1     26       109.5           109.5           0.000    
     57      4      1     27       109.5           109.5           0.000    
     58      5      1     27       109.5           109.5           0.000    
     59      4      1     28       109.5           109.5           0.000    
     60      5      1     28       109.5           109.5           0.000    
     61      4      1     29       109.5           109.5           0.000    
     62      5      1     29       109.5           109.5           0.000    
     63      4      1     30       109.5           109.5           0.000    
     64      5      1     30       109.5           109.5           0.000    
     65      4      1     31       109.5           109.5           0.000    
     66      5      1     31       109.5           109.5           0.000    
     67      4      1     32       109.5           109.5           0.000    
     68      5      1     32       109.5           109.5           0.000    
     69      4      1     33       109.5           109.5           0.000    
     70      5      1     33       109.5           109.5           0.000    
     71      4      1     34       109.5           109.5           0.000    
     72      5      1     34       109.5           109.5           0.000    
     73      4      1     35       109.5           109.5           0.000    
     74      5      1     35       109.5           109.5           0.000    
     75      4     36     35       109.3           109.2           0.000    
     76      5     36     35       109.3           109.2           0.000    
     77      4     35     34       109.3           109.2           0.000    
     78      5     35     34       109.3           109.2           0.000    
     79      4     36     34       109.3           109.2           0.000    
     80      5     36     34       109.3           109.2           0.000    
     81      4     36     33       109.3           109.2           0.000    
     82      5     36     33       109.3           109.2           0.000    
     83      4     36     32       109.2           109.2           0.000    
     84      5     36     32       109.2           109.2           0.000    
     85      4     37     32       109.2           109.2           0.000    
     86      5     37     32       109.2           109.2           0.000    
     87      4     37     31       109.2           109.2           0.000    
     88      5     37     31       109.2           109.2           0.000    
     89      4     38     31       109.2           109.2           0.000    
     90      5     38     31       109.2           109.2           0.000    
     91      4     38     30       109.2           109.2           0.000    
     92      5     38     30       109.2           109.2           0.000    
     93      4     39     30       109.2           109.2           0.000    
     94      5     39     30       109.2           109.2           0.000    
     95      4     39     29       109.2           109.2           0.000    
     96      5     39     29       109.2           109.2           0.000    
     97      4     40     29       109.2           109.2           0.000    
     98      5     40     29       109.2           109.2           0.000    
     99      4     40     28       109.2           109.2           0.000    
    100      5     40     28       109.2           109.2           0.000    
    101      4     40     27       109.2           109.2           0.000    
    102      5     40     27       109.2           109.2           0.000    
    103      4     41     27       109.2           109.2           0.000    
    104      5     41     27       109.2           109.2           0.000    
    105      4     41     26       109.2           109.2           0.000    
    106      5     41     26       109.2           109.2           0.000    
    107      4     41     25       109.2           109.2           0.000    
    108      5     41     25       109.2           109.2           0.000    
    109      4     41     24       109.2           109.2           0.000    
    110      5     41     24       109.2           109.2           0.000    
    111      4     41     23       109.2           109.2           0.000    
    112      5     41     23       109.2           109.2           0.000    
    113      4     41     22       109.2           109.2           0.000    
    114      5     41     22       109.2           109.2           0.000    
    115      4     42     22       109.2           109.2           0.000    
    116      5     42     22       109.2           109.2           0.000    
    117      4     42     21       109.2           109.2           0.000    
    118      5     42     21       109.2           109.2           0.000    
    119      4     42     20       109.2           109.2           0.000    
    120      5     42     20       109.2           109.2           0.000    
    121      4     42     19       109.2           109.2           0.000    
    122      5     42     19       109.2           109.2           0.000    
    123      4     43     18       109.2           109.2           0.000    
    124      5     43     18       109.2           109.2           0.000    
    125      4     42     18       109.2           109.2           0.000    
    126      5     42     18       109.2           109.2           0.000    
    127      4     42     17       109.2           109.2           0.000    
    128      5     42     17       109.2           109.2           0.000    
    129      4     42     16       109.2           109.2           0.000    
    130      5     42     16       109.2           109.2           0.000    
    131      4     42     15       109.2           109.2           0.000    
    132      5     42     15       109.2           109.2           0.000    
    133      4     43     15       109.2           109.2           0.000    
    134      5     43     15       109.2           109.2           0.000    
    135      4     43     14       109.2           109.2           0.000    
    136      5     43     14       109.2           109.2           0.000    
    137      4     43     13       109.2           109.2           0.000    
    138      5     43     13       109.2           109.2           0.000    
    139      4     43     12       109.2           109.2           0.000    
    140      5     43     12       109.2           109.2           0.000    
    141      4     43     11       109.2           109.2           0.000    
    142      5     43     11       109.2           109.2           0.000    
    143      4     43     10       109.2           109.2           0.000    
    144      5     43     10       109.2           109.2           0.000    
    145      4     44     10       109.2           109.2           0.000    
    146      5     44     10       109.2           109.2           0.000    
    147      4     44      9       109.2           109.2           0.000    
    148      5     44      9       109.2           109.2           0.000    
    149      4     44      8       109.2           109.2           0.000    
    150      5     44      8       109.2           109.2           0.000    
    151      4     44      7       109.2           109.2           0.000    
    152      5     44      7       109.2           109.2           0.000    
    153      4     44      6       109.2           109.2           0.000    
    154      5     44      6       109.2           109.2           0.000    
    155      4     44      5       109.2           109.2           0.000    
    156      5     44      5       109.2           109.2           0.000    
    157      4     44      4       109.2           109.2           0.000    
    158      5     44      4       109.2           109.2           0.000    
    159      4     44      3       109.2           109.2           0.000    
    160      5     44      3       109.2           109.2           0.000    
    161      4     45      3       109.2           109.2           0.000    
    162      5     45      3       109.2           109.2           0.000    
    163      4     45      2       109.2           109.2           0.000    
    164      5     45      2       109.2           109.2           0.000    
    165      4     45      1       109.2           109.2           0.000    
    166      5     45      1       109.2           109.2           0.000    


    166 TIME-VARIANT SPECIFIED-HEAD CELLS

 SOLVING FOR HEAD 


     4 CALLS TO PCG ROUTINE FOR TIME STEP   1 IN STRESS PERIOD   51
    60 TOTAL ITERATIONS

 MAXIMUM HEAD CHANGE FOR EACH ITERATION (1 INDICATES THE FIRST INNER ITERATION):

    HEAD CHANGE    HEAD CHANGE    HEAD CHANGE    HEAD CHANGE    HEAD CHANGE 
   LAYER,ROW,COL  LAYER,ROW,COL  LAYER,ROW,COL  LAYER,ROW,COL  LAYER,ROW,COL
 ---------------------------------------------------------------------------
  1 -0.1033      0  0.6661E-01  0  0.3734E-01  0 -0.3395E-01  0 -0.3808E-01
   (  5, 43,  5)  (  5, 39,  1)  (  5, 27,  2)  (  5, 36,  1)  (  5, 39,  1)
  0  0.3307E-01  0 -0.2687E-01  0  0.1719E-01  0  0.1263E-01  0  0.1012E-01
   (  5, 35,  1)  (  5, 32,  2)  (  5, 39,  1)  (  5, 40,  1)  (  5, 39,  5)
  0 -0.7772E-02  0 -0.4886E-02  0  0.6065E-02  0 -0.3062E-02  0 -0.2231E-02
   (  5, 36,  5)  (  5, 32, 10)  (  5, 30,  9)  (  5, 36,  9)  (  5, 27,  3)
  0  0.3202E-02  0 -0.2326E-02  0  0.1408E-02  0 -0.1012E-02  0  0.6973E-03
   (  5, 33,  8)  (  5, 31,  8)  (  5, 35,  7)  (  5, 33,  7)  (  5, 32,  3)
  0  0.9056E-03  0 -0.6083E-03  0  0.5103E-03  0 -0.2939E-03  0  0.2478E-03
   (  5, 32,  8)  (  5, 14,  1)  (  5, 14,  1)  (  5, 26,  1)  (  5, 28,  4)
  0 -0.2448E-03  0  0.2246E-03  0 -0.2040E-03  0  0.8522E-04  0 -0.9949E-04
   (  5, 35,  1)  (  5, 12,  1)  (  5, 12,  1)  (  5, 39,  1)  (  5, 37,  1)
  1  0.5713E-03  0  0.3829E-03  0  0.7502E-03  0  0.4292E-03  0  0.5225E-03
   (  5, 28,  4)  (  3, 27,  5)  (  5, 31,  1)  (  5, 25,  2)  (  5, 36,  1)
  0  0.2682E-03  0 -0.1900E-03  0  0.2232E-03  0  0.1240E-03  0 -0.8945E-04
   (  5, 21,  4)  (  5, 26,  8)  (  5, 38,  1)  (  5, 25,  8)  (  5, 33, 12)
  0 -0.6341E-04  0  0.6202E-04  0  0.5075E-04  0  0.3533E-04  0  0.3020E-04
   (  5, 14,  1)  (  5, 27,  1)  (  5, 36,  5)  (  5, 29,  4)  (  5, 32,  1)
  0 -0.1664E-04  0  0.1865E-04  0  0.8885E-05  0  0.8770E-05  0 -0.9509E-05
   (  5, 30,  1)  (  5, 26,  1)  (  5, 23,  5)  (  5, 34,  1)  (  5, 12,  1)
  0  0.5036E-05  0 -0.4307E-05  0  0.4449E-05  0  0.2431E-05  0 -0.2089E-05
   (  5, 36,  4)  (  5, 35,  1)  (  5, 32,  1)  (  5, 26, 12)  (  5, 15,  1)
  0 -0.1243E-05  0 -0.9839E-06  1  0.1224E-05  0  0.9637E-06  1 -0.8654E-06
   (  5, 13,  2)  (  5, 37,  1)  (  5, 37,  2)  (  5, 30,  4)  (  5, 22,  1)

 MAXIMUM RESIDUAL FOR EACH ITERATION (1 INDICATES THE FIRST INNER ITERATION):

    RESIDUAL       RESIDUAL       RESIDUAL       RESIDUAL       RESIDUAL    
   LAYER,ROW,COL  LAYER,ROW,COL  LAYER,ROW,COL  LAYER,ROW,COL  LAYER,ROW,COL
 ---------------------------------------------------------------------------
  1  0.2603E-03  0  0.2264E-03  0  0.1899E-03  0  0.1599E-03  0  0.1323E-03
   (  3,  3,  1)  (  4, 35, 35)  (  3,  3,  1)  (  3,  3,  1)  (  3,  3,  1)
  0 -0.1205E-03  0 -0.1047E-03  0 -0.8843E-04  0 -0.7286E-04  0 -0.5860E-04
   (  4, 34, 35)  (  4, 34, 35)  (  4, 43,  4)  (  4, 43,  4)  (  4, 43,  4)
  0 -0.4572E-04  0 -0.3723E-04  0 -0.3116E-04  0 -0.2522E-04  0 -0.2351E-04
   (  4, 43,  4)  (  4, 44,  2)  (  4, 44,  2)  (  4, 44,  2)  (  4, 44,  2)
  0 -0.1866E-04  0 -0.1404E-04  0 -0.1044E-04  0 -0.8802E-05  0 -0.7181E-05
   (  4, 44,  2)  (  4, 44,  2)  (  4, 44,  2)  (  4, 44,  2)  (  4, 44,  2)
  0 -0.5100E-05  0 -0.3350E-05  0 -0.2125E-05  0 -0.1694E-05  0 -0.1451E-05
   (  4, 44,  2)  (  4, 44,  2)  (  4, 44,  2)  (  4, 34, 35)  (  4, 34, 35)
  0 -0.1285E-05  0 -0.1012E-05  0  0.7764E-06  0  0.5888E-06  0  0.4837E-06
   (  3,  3,  2)  (  3,  3,  2)  (  4, 35, 35)  (  4, 35, 35)  (  4, 35, 35)
  1 -0.1465E-05  0 -0.1362E-05  0 -0.1114E-05  0 -0.1201E-05  0 -0.8840E-06
   (  3, 28,  1)  (  3, 28,  1)  (  3, 28,  1)  (  4, 29,  1)  (  4, 29,  1)
  0 -0.6844E-06  0 -0.5886E-06  0 -0.5537E-06  0 -0.4416E-06  0 -0.3667E-06
   (  4, 29,  1)  (  4, 37,  1)  (  4, 40,  1)  (  4, 41,  1)  (  4, 42,  1)
  0 -0.2662E-06  0 -0.2180E-06  0  0.1789E-06  0  0.1412E-06  0  0.1246E-06
   (  4, 43,  1)  (  4, 43,  1)  (  4, 43,  4)  (  4, 43,  2)  (  4, 43,  2)
  0  0.1019E-06  0  0.8760E-07  0  0.7582E-07  0  0.6148E-07  0  0.4412E-07
   (  4, 43,  2)  (  4, 44,  2)  (  4, 44,  2)  (  4, 44,  2)  (  4, 44,  2)
  0  0.2957E-07  0 -0.2348E-07  0 -0.1859E-07  0 -0.1407E-07  0 -0.1085E-07
   (  4, 44,  2)  (  4, 42,  2)  (  4, 42,  2)  (  4, 43,  2)  (  4, 43,  2)
  0 -0.8026E-08  0 -0.6276E-08  1 -0.6113E-08  0 -0.5077E-08  1 -0.4915E-08
   (  4, 43,  2)  (  4, 43,  2)  (  4, 43,  2)  (  4, 43,  2)  (  4, 43,  2)



 OUTPUT CONTROL FOR STRESS PERIOD   51   TIME STEP    1
    SAVE HEAD FOR ALL LAYERS
    SAVE DRAWDOWN FOR ALL LAYERS
    SAVE BUDGET
    PRINT BUDGET
 UBDSV1 SAVING "         STORAGE" ON UNIT   9 AT TIME STEP  1, STRESS PERIOD  51
 UBDSV2 SAVING "   CONSTANT HEAD" ON UNIT   9 AT TIME STEP  1, STRESS PERIOD  51
 UBDSV1 SAVING "FLOW RIGHT FACE " ON UNIT   9 AT TIME STEP  1, STRESS PERIOD  51
 UBDSV1 SAVING "FLOW FRONT FACE " ON UNIT   9 AT TIME STEP  1, STRESS PERIOD  51
 UBDSV1 SAVING "FLOW LOWER FACE " ON UNIT   9 AT TIME STEP  1, STRESS PERIOD  51
 UBDSV3 SAVING "        RECHARGE" ON UNIT   9 AT TIME STEP  1, STRESS PERIOD  51

 HEAD WILL BE SAVED ON UNIT   37 AT END OF TIME STEP    1, STRESS PERIOD   51

 DRAWDOWN WILL BE SAVED ON UNIT   38 AT END OF TIME STEP    1, STRESS PERIOD   51
1
  VOLUMETRIC BUDGET FOR ENTIRE MODEL AT END OF TIME STEP    1, STRESS PERIOD  51
  ------------------------------------------------------------------------------

     CUMULATIVE VOLUMES      L**3       RATES FOR THIS TIME STEP      L**3/T
     ------------------                 ------------------------

           IN:                                      IN:
           ---                                      ---
             STORAGE =       10353.0674               STORAGE =       2.1139E-03
       CONSTANT HEAD =       14580.1553         CONSTANT HEAD =       1.8578E-03
            RECHARGE =         608.8517              RECHARGE =       1.0213E-04

            TOTAL IN =       25542.0742              TOTAL IN =       4.0738E-03

          OUT:                                     OUT:
          ----                                     ----
             STORAGE =        5027.4707               STORAGE =           0.0000
       CONSTANT HEAD =       20515.2832         CONSTANT HEAD =       4.0739E-03
            RECHARGE =           0.0000              RECHARGE =           0.0000

           TOTAL OUT =       25542.7539             TOTAL OUT =       4.0739E-03

            IN - OUT =          -0.6797              IN - OUT =      -8.3819E-08

 PERCENT DISCREPANCY =          -0.00     PERCENT DISCREPANCY =          -0.00






         TIME SUMMARY AT END OF TIME STEP    1 IN STRESS PERIOD   51
                    SECONDS     MINUTES      HOURS       DAYS        YEARS
                    -----------------------------------------------------------
   TIME STEP LENGTH  86400.      1440.0      24.000      1.0000     2.73785E-03
 STRESS PERIOD TIME  86400.      1440.0      24.000      1.0000     2.73785E-03
         TOTAL TIME 5.96160E+06  99360.      1656.0      69.000     0.18891    
1
1
                            STRESS PERIOD NO.   52, LENGTH =   86400.00    
                            -----------------------------------------------

                              NUMBER OF TIME STEPS =     1

                               MULTIPLIER FOR DELT =     1.000

                            INITIAL TIME STEP SIZE =   86400.00    

 REUSING RECH FROM LAST STRESS PERIOD

 CHD NO.   LAYER   ROW   COL    START HEAD        END HEAD         IFACE           
 ----------------------------------------------------------------------------------
      1      4      3      1       109.5           109.4           0.000    
      2      5      3      1       109.5           109.4           0.000    
      3      4      3      2       109.5           109.4           0.000    
      4      5      3      2       109.5           109.4           0.000    
      5      4      3      3       109.5           109.4           0.000    
      6      5      3      3       109.5           109.4           0.000    
      7      4      3      4       109.5           109.4           0.000    
      8      5      3      4       109.5           109.4           0.000    
      9      4      3      5       109.5           109.4           0.000    
     10      5      3      5       109.5           109.4           0.000    
     11      4      3      6       109.5           109.4           0.000    
     12      5      3      6       109.5           109.4           0.000    
     13      4      3      7       109.5           109.4           0.000    
     14      5      3      7       109.5           109.4           0.000    
     15      4      3      8       109.5           109.4           0.000    
     16      5      3      8       109.5           109.4           0.000    
     17      4      2      8       109.5           109.4           0.000    
     18      5      2      8       109.5           109.4           0.000    
     19      4      2      9       109.5           109.4           0.000    
     20      5      2      9       109.5           109.4           0.000    
     21      4      2     10       109.5           109.4           0.000    
     22      5      2     10       109.5           109.4           0.000    
     23      4      2     11       109.5           109.4           0.000    
     24      5      2     11       109.5           109.4           0.000    
     25      4      2     12       109.5           109.4           0.000    
     26      5      2     12       109.5           109.4           0.000    
     27      4      2     13       109.5           109.4           0.000    
     28      5      2     13       109.5           109.4           0.000    
     29      4      2     14       109.5           109.4           0.000    
     30      5      2     14       109.5           109.4           0.000    
     31      4      2     15       109.5           109.4           0.000    
     32      5      2     15       109.5           109.4           0.000    
     33      4      2     16       109.5           109.4           0.000    
     34      5      2     16       109.5           109.4           0.000    
     35      4      2     17       109.5           109.4           0.000    
     36      5      2     17       109.5           109.4           0.000    
     37      4      2     18       109.5           109.4           0.000    
     38      5      2     18       109.5           109.4           0.000    
     39      4      2     19       109.5           109.4           0.000    
     40      5      2     19       109.5           109.4           0.000    
     41      4      2     20       109.5           109.4           0.000    
     42      5      2     20       109.5           109.4           0.000    
     43      4      2     21       109.5           109.4           0.000    
     44      5      2     21       109.5           109.4           0.000    
     45      4      2     22       109.5           109.4           0.000    
     46      5      2     22       109.5           109.4           0.000    
     47      4      2     23       109.5           109.4           0.000    
     48      5      2     23       109.5           109.4           0.000    
     49      4      2     24       109.5           109.4           0.000    
     50      5      2     24       109.5           109.4           0.000    
     51      4      2     25       109.5           109.4           0.000    
     52      5      2     25       109.5           109.4           0.000    
     53      4      2     26       109.5           109.4           0.000    
     54      5      2     26       109.5           109.4           0.000    
     55      4      1     26       109.5           109.4           0.000    
     56      5      1     26       109.5           109.4           0.000    
     57      4      1     27       109.5           109.4           0.000    
     58      5      1     27       109.5           109.4           0.000    
     59      4      1     28       109.5           109.4           0.000    
     60      5      1     28       109.5           109.4           0.000    
     61      4      1     29       109.5           109.4           0.000    
     62      5      1     29       109.5           109.4           0.000    
     63      4      1     30       109.5           109.4           0.000    
     64      5      1     30       109.5           109.4           0.000    
     65      4      1     31       109.5           109.4           0.000    
     66      5      1     31       109.5           109.4           0.000    
     67      4      1     32       109.5           109.4           0.000    
     68      5      1     32       109.5           109.4           0.000    
     69      4      1     33       109.5           109.4           0.000    
     70      5      1     33       109.5           109.4           0.000    
     71      4      1     34       109.5           109.4           0.000    
     72      5      1     34       109.5           109.4           0.000    
     73      4      1     35       109.5           109.4           0.000    
     74      5      1     35       109.5           109.4           0.000    
     75      4     36     35       109.2           109.2           0.000    
     76      5     36     35       109.2           109.2           0.000    
     77      4     35     34       109.2           109.2           0.000    
     78      5     35     34       109.2           109.2           0.000    
     79      4     36     34       109.2           109.2           0.000    
     80      5     36     34       109.2           109.2           0.000    
     81      4     36     33       109.2           109.2           0.000    
     82      5     36     33       109.2           109.2           0.000    
     83      4     36     32       109.2           109.2           0.000    
     84      5     36     32       109.2           109.2           0.000    
     85      4     37     32       109.2           109.2           0.000    
     86      5     37     32       109.2           109.2           0.000    
     87      4     37     31       109.2           109.2           0.000    
     88      5     37     31       109.2           109.2           0.000    
     89      4     38     31       109.2           109.2           0.000    
     90      5     38     31       109.2           109.2           0.000    
     91      4     38     30       109.2           109.1           0.000    
     92      5     38     30       109.2           109.1           0.000    
     93      4     39     30       109.2           109.1           0.000    
     94      5     39     30       109.2           109.1           0.000    
     95      4     39     29       109.2           109.1           0.000    
     96      5     39     29       109.2           109.1           0.000    
     97      4     40     29       109.2           109.1           0.000    
     98      5     40     29       109.2           109.1           0.000    
     99      4     40     28       109.2           109.1           0.000    
    100      5     40     28       109.2           109.1           0.000    
    101      4     40     27       109.2           109.1           0.000    
    102      5     40     27       109.2           109.1           0.000    
    103      4     41     27       109.2           109.1           0.000    
    104      5     41     27       109.2           109.1           0.000    
    105      4     41     26       109.2           109.1           0.000    
    106      5     41     26       109.2           109.1           0.000    
    107      4     41     25       109.2           109.1           0.000    
    108      5     41     25       109.2           109.1           0.000    
    109      4     41     24       109.2           109.1           0.000    
    110      5     41     24       109.2           109.1           0.000    
    111      4     41     23       109.2           109.1           0.000    
    112      5     41     23       109.2           109.1           0.000    
    113      4     41     22       109.2           109.1           0.000    
    114      5     41     22       109.2           109.1           0.000    
    115      4     42     22       109.2           109.1           0.000    
    116      5     42     22       109.2           109.1           0.000    
    117      4     42     21       109.2           109.1           0.000    
    118      5     42     21       109.2           109.1           0.000    
    119      4     42     20       109.2           109.1           0.000    
    120      5     42     20       109.2           109.1           0.000    
    121      4     42     19       109.2           109.1           0.000    
    122      5     42     19       109.2           109.1           0.000    
    123      4     43     18       109.2           109.1           0.000    
    124      5     43     18       109.2           109.1           0.000    
    125      4     42     18       109.2           109.1           0.000    
    126      5     42     18       109.2           109.1           0.000    
    127      4     42     17       109.2           109.1           0.000    
    128      5     42     17       109.2           109.1           0.000    
    129      4     42     16       109.2           109.1           0.000    
    130      5     42     16       109.2           109.1           0.000    
    131      4     42     15       109.2           109.1           0.000    
    132      5     42     15       109.2           109.1           0.000    
    133      4     43     15       109.2           109.1           0.000    
    134      5     43     15       109.2           109.1           0.000    
    135      4     43     14       109.2           109.1           0.000    
    136      5     43     14       109.2           109.1           0.000    
    137      4     43     13       109.2           109.1           0.000    
    138      5     43     13       109.2           109.1           0.000    
    139      4     43     12       109.2           109.1           0.000    
    140      5     43     12       109.2           109.1           0.000    
    141      4     43     11       109.2           109.1           0.000    
    142      5     43     11       109.2           109.1           0.000    
    143      4     43     10       109.2           109.1           0.000    
    144      5     43     10       109.2           109.1           0.000    
    145      4     44     10       109.2           109.1           0.000    
    146      5     44     10       109.2           109.1           0.000    
    147      4     44      9       109.2           109.1           0.000    
    148      5     44      9       109.2           109.1           0.000    
    149      4     44      8       109.2           109.1           0.000    
    150      5     44      8       109.2           109.1           0.000    
    151      4     44      7       109.2           109.1           0.000    
    152      5     44      7       109.2           109.1           0.000    
    153      4     44      6       109.2           109.1           0.000    
    154      5     44      6       109.2           109.1           0.000    
    155      4     44      5       109.2           109.1           0.000    
    156      5     44      5       109.2           109.1           0.000    
    157      4     44      4       109.2           109.1           0.000    
    158      5     44      4       109.2           109.1           0.000    
    159      4     44      3       109.2           109.1           0.000    
    160      5     44      3       109.2           109.1           0.000    
    161      4     45      3       109.2           109.1           0.000    
    162      5     45      3       109.2           109.1           0.000    
    163      4     45      2       109.2           109.1           0.000    
    164      5     45      2       109.2           109.1           0.000    
    165      4     45      1       109.2           109.1           0.000    
    166      5     45      1       109.2           109.1           0.000    


    166 TIME-VARIANT SPECIFIED-HEAD CELLS

 SOLVING FOR HEAD 


     4 CALLS TO PCG ROUTINE FOR TIME STEP   1 IN STRESS PERIOD   52
    64 TOTAL ITERATIONS

 MAXIMUM HEAD CHANGE FOR EACH ITERATION (1 INDICATES THE FIRST INNER ITERATION):

    HEAD CHANGE    HEAD CHANGE    HEAD CHANGE    HEAD CHANGE    HEAD CHANGE 
   LAYER,ROW,COL  LAYER,ROW,COL  LAYER,ROW,COL  LAYER,ROW,COL  LAYER,ROW,COL
 ---------------------------------------------------------------------------
  1 -0.2605      0  0.1257      0  0.9329E-01  0 -0.1082      0  0.8415E-01
   (  5, 43,  5)  (  5, 39,  1)  (  5, 42,  1)  (  5, 38,  1)  (  5, 34,  1)
  0 -0.5654E-01  0  0.3384E-01  0  0.2572E-01  0 -0.2227E-01  0  0.2003E-01
   (  5, 32,  2)  (  5, 30,  2)  (  5, 40,  1)  (  5, 37,  1)  (  5, 40,  5)
  0 -0.1328E-01  0  0.9499E-02  0  0.7552E-02  0 -0.6303E-02  0  0.4013E-02
   (  5, 39,  1)  (  5, 42,  1)  (  5, 36,  5)  (  5, 37,  8)  (  5, 34,  8)
  0  0.3055E-02  0 -0.2963E-02  0  0.1742E-02  0 -0.1407E-02  0 -0.1237E-02
   (  5, 28, 10)  (  5, 33,  8)  (  5, 32,  3)  (  5, 36,  3)  (  5, 13,  1)
  0  0.9804E-03  0 -0.6809E-03  0 -0.6005E-03  0 -0.3859E-03  0  0.2560E-03
   (  5, 13,  1)  (  5, 34,  1)  (  5, 12,  1)  (  5, 36,  1)  (  5, 32, 10)
  0 -0.1930E-03  0 -0.1291E-03  0  0.1165E-03  0 -0.1026E-03  0  0.6964E-04
   (  5, 33,  6)  (  5, 38,  1)  (  5, 36,  1)  (  5, 38,  1)  (  5, 33,  6)
  1  0.6595E-03  0  0.6061E-03  0  0.7251E-03  0  0.3805E-03  0  0.4011E-03
   (  5, 24,  9)  (  3, 20,  7)  (  5, 25,  1)  (  5, 21,  3)  (  5, 32,  1)
  0 -0.2482E-03  0  0.2651E-03  0 -0.2037E-03  0  0.1357E-03  0  0.7278E-04
   (  5, 34,  1)  (  5, 36,  1)  (  5, 37,  1)  (  5, 39,  1)  (  5, 13,  1)
  0  0.7483E-04  0  0.5814E-04  0  0.4721E-04  0 -0.3553E-04  0  0.2934E-04
   (  5, 39,  1)  (  5, 31, 11)  (  5, 14,  1)  (  5, 13,  1)  (  5, 13,  2)
  0 -0.1400E-04  0  0.1418E-04  0  0.1043E-04  0 -0.7783E-05  0  0.5697E-05
   (  5, 34,  7)  (  5, 40,  1)  (  5, 35,  1)  (  5, 32,  1)  (  5, 29,  1)
  0  0.4254E-05  0  0.3615E-05  0 -0.2478E-05  0  0.2476E-05  0  0.1297E-05
   (  5, 36,  4)  (  5, 23,  1)  (  5, 13,  1)  (  5, 37,  8)  (  5, 40,  1)
  0 -0.1543E-05  0  0.7618E-06  1  0.3497E-05  0  0.3379E-05  0  0.3622E-05
   (  5, 37,  1)  (  5, 33,  7)  (  3, 20,  4)  (  3, 20,  4)  (  3, 20,  4)
  0  0.2952E-05  0  0.1548E-05  0  0.9573E-06  1 -0.7046E-06
   (  3, 20,  4)  (  3, 20,  4)  (  5, 38,  2)  (  5, 37,  1)

 MAXIMUM RESIDUAL FOR EACH ITERATION (1 INDICATES THE FIRST INNER ITERATION):

    RESIDUAL       RESIDUAL       RESIDUAL       RESIDUAL       RESIDUAL    
   LAYER,ROW,COL  LAYER,ROW,COL  LAYER,ROW,COL  LAYER,ROW,COL  LAYER,ROW,COL
 ---------------------------------------------------------------------------
  1  0.7092E-03  0  0.6112E-03  0  0.4989E-03  0  0.3858E-03  0  0.3255E-03
   (  4, 35, 35)  (  4, 35, 35)  (  4, 35, 35)  (  3, 40, 27)  (  3, 40, 27)
  0  0.2609E-03  0 -0.2156E-03  0 -0.1860E-03  0 -0.1522E-03  0 -0.1194E-03
   (  3, 40, 27)  (  4, 43,  5)  (  4, 43,  4)  (  4, 43,  4)  (  4, 43,  4)
  0 -0.8998E-04  0 -0.6956E-04  0 -0.5531E-04  0 -0.4298E-04  0 -0.3188E-04
   (  4, 43,  4)  (  4, 44,  2)  (  4, 44,  2)  (  4, 44,  2)  (  4, 44,  2)
  0 -0.2362E-04  0 -0.1729E-04  0 -0.1498E-04  0 -0.1266E-04  0 -0.9656E-05
   (  4, 44,  2)  (  4, 34, 35)  (  4, 34, 35)  (  4, 34, 35)  (  4, 34, 35)
  0 -0.7599E-05  0 -0.6659E-05  0 -0.4897E-05  0 -0.3364E-05  0 -0.2368E-05
   (  4, 34, 35)  (  4, 34, 35)  (  4, 34, 35)  (  4, 34, 35)  (  4, 34, 35)
  0 -0.1682E-05  0  0.1199E-05  0  0.1012E-05  0  0.7858E-06  0  0.5367E-06
   (  4, 34, 35)  (  4, 35, 35)  (  4, 35, 35)  (  4, 35, 35)  (  4, 35, 35)
  1 -0.2206E-05  0 -0.1694E-05  0 -0.1101E-05  0 -0.9042E-06  0 -0.6488E-06
   (  3, 42,  4)  (  3, 42,  4)  (  3, 42,  4)  (  3, 22,  1)  (  3, 22,  1)
  0 -0.5208E-06  0 -0.5743E-06  0 -0.4435E-06  0 -0.4345E-06  0 -0.3255E-06
   (  3, 22,  1)  (  4, 40,  1)  (  4, 41,  1)  (  4, 42,  1)  (  4, 43,  1)
  0 -0.2852E-06  0  0.2178E-06  0  0.1831E-06  0  0.1484E-06  0  0.1136E-06
   (  4, 43,  1)  (  4, 43,  4)  (  4, 43,  4)  (  4, 43,  2)  (  4, 43,  2)
  0  0.8650E-07  0  0.7090E-07  0  0.5680E-07  0  0.4925E-07  0  0.3363E-07
   (  4, 44,  2)  (  4, 44,  2)  (  4, 44,  2)  (  4, 44,  2)  (  4, 44,  2)
  0 -0.2327E-07  0 -0.2026E-07  0 -0.1680E-07  0 -0.1373E-07  0 -0.1160E-07
   (  4, 42,  2)  (  4, 42,  2)  (  4, 43,  2)  (  4, 43,  2)  (  4, 43,  2)
  0 -0.9179E-08  0 -0.5594E-08  1 -0.3329E-07  0 -0.2454E-07  0 -0.1470E-07
   (  4, 43,  2)  (  4, 43,  2)  (  3, 20,  4)  (  3, 20,  4)  (  3, 20,  4)
  0 -0.7713E-08  0  0.5503E-08  0  0.5053E-08  1  0.4251E-08
   (  3, 20,  4)  (  4, 20,  4)  (  4, 20,  4)  (  4, 20,  4)



 OUTPUT CONTROL FOR STRESS PERIOD   52   TIME STEP    1
    SAVE HEAD FOR ALL LAYERS
    SAVE DRAWDOWN FOR ALL LAYERS
    SAVE BUDGET
    PRINT BUDGET
 UBDSV1 SAVING "         STORAGE" ON UNIT   9 AT TIME STEP  1, STRESS PERIOD  52
 UBDSV2 SAVING "   CONSTANT HEAD" ON UNIT   9 AT TIME STEP  1, STRESS PERIOD  52
 UBDSV1 SAVING "FLOW RIGHT FACE " ON UNIT   9 AT TIME STEP  1, STRESS PERIOD  52
 UBDSV1 SAVING "FLOW FRONT FACE " ON UNIT   9 AT TIME STEP  1, STRESS PERIOD  52
 UBDSV1 SAVING "FLOW LOWER FACE " ON UNIT   9 AT TIME STEP  1, STRESS PERIOD  52
 UBDSV3 SAVING "        RECHARGE" ON UNIT   9 AT TIME STEP  1, STRESS PERIOD  52

 HEAD WILL BE SAVED ON UNIT   37 AT END OF TIME STEP    1, STRESS PERIOD   52

 DRAWDOWN WILL BE SAVED ON UNIT   38 AT END OF TIME STEP    1, STRESS PERIOD   52
1
  VOLUMETRIC BUDGET FOR ENTIRE MODEL AT END OF TIME STEP    1, STRESS PERIOD  52
  ------------------------------------------------------------------------------

     CUMULATIVE VOLUMES      L**3       RATES FOR THIS TIME STEP      L**3/T
     ------------------                 ------------------------

           IN:                                      IN:
           ---                                      ---
             STORAGE =       10595.8301               STORAGE =       2.8098E-03
       CONSTANT HEAD =       14746.3594         CONSTANT HEAD =       1.9237E-03
            RECHARGE =         617.6756              RECHARGE =       1.0213E-04

            TOTAL IN =       25959.8652              TOTAL IN =       4.8355E-03

          OUT:                                     OUT:
          ----                                     ----
             STORAGE =        5027.4707               STORAGE =           0.0000
       CONSTANT HEAD =       20933.0840         CONSTANT HEAD =       4.8357E-03
            RECHARGE =           0.0000              RECHARGE =           0.0000

           TOTAL OUT =       25960.5547             TOTAL OUT =       4.8357E-03

            IN - OUT =          -0.6895              IN - OUT =      -1.1222E-07

 PERCENT DISCREPANCY =          -0.00     PERCENT DISCREPANCY =          -0.00






         TIME SUMMARY AT END OF TIME STEP    1 IN STRESS PERIOD   52
                    SECONDS     MINUTES      HOURS       DAYS        YEARS
                    -----------------------------------------------------------
   TIME STEP LENGTH  86400.      1440.0      24.000      1.0000     2.73785E-03
 STRESS PERIOD TIME  86400.      1440.0      24.000      1.0000     2.73785E-03
         TOTAL TIME 6.04800E+06 1.00800E+05  1680.0      70.000     0.19165    
1
1
                            STRESS PERIOD NO.   53, LENGTH =   86400.00    
                            -----------------------------------------------

                              NUMBER OF TIME STEPS =     1

                               MULTIPLIER FOR DELT =     1.000

                            INITIAL TIME STEP SIZE =   86400.00    

 REUSING RECH FROM LAST STRESS PERIOD

 CHD NO.   LAYER   ROW   COL    START HEAD        END HEAD         IFACE           
 ----------------------------------------------------------------------------------
      1      4      3      1       109.4           109.4           0.000    
      2      5      3      1       109.4           109.4           0.000    
      3      4      3      2       109.4           109.4           0.000    
      4      5      3      2       109.4           109.4           0.000    
      5      4      3      3       109.4           109.4           0.000    
      6      5      3      3       109.4           109.4           0.000    
      7      4      3      4       109.4           109.4           0.000    
      8      5      3      4       109.4           109.4           0.000    
      9      4      3      5       109.4           109.4           0.000    
     10      5      3      5       109.4           109.4           0.000    
     11      4      3      6       109.4           109.4           0.000    
     12      5      3      6       109.4           109.4           0.000    
     13      4      3      7       109.4           109.4           0.000    
     14      5      3      7       109.4           109.4           0.000    
     15      4      3      8       109.4           109.4           0.000    
     16      5      3      8       109.4           109.4           0.000    
     17      4      2      8       109.4           109.4           0.000    
     18      5      2      8       109.4           109.4           0.000    
     19      4      2      9       109.4           109.4           0.000    
     20      5      2      9       109.4           109.4           0.000    
     21      4      2     10       109.4           109.4           0.000    
     22      5      2     10       109.4           109.4           0.000    
     23      4      2     11       109.4           109.4           0.000    
     24      5      2     11       109.4           109.4           0.000    
     25      4      2     12       109.4           109.4           0.000    
     26      5      2     12       109.4           109.4           0.000    
     27      4      2     13       109.4           109.4           0.000    
     28      5      2     13       109.4           109.4           0.000    
     29      4      2     14       109.4           109.4           0.000    
     30      5      2     14       109.4           109.4           0.000    
     31      4      2     15       109.4           109.4           0.000    
     32      5      2     15       109.4           109.4           0.000    
     33      4      2     16       109.4           109.4           0.000    
     34      5      2     16       109.4           109.4           0.000    
     35      4      2     17       109.4           109.4           0.000    
     36      5      2     17       109.4           109.4           0.000    
     37      4      2     18       109.4           109.4           0.000    
     38      5      2     18       109.4           109.4           0.000    
     39      4      2     19       109.4           109.4           0.000    
     40      5      2     19       109.4           109.4           0.000    
     41      4      2     20       109.4           109.4           0.000    
     42      5      2     20       109.4           109.4           0.000    
     43      4      2     21       109.4           109.4           0.000    
     44      5      2     21       109.4           109.4           0.000    
     45      4      2     22       109.4           109.4           0.000    
     46      5      2     22       109.4           109.4           0.000    
     47      4      2     23       109.4           109.4           0.000    
     48      5      2     23       109.4           109.4           0.000    
     49      4      2     24       109.4           109.4           0.000    
     50      5      2     24       109.4           109.4           0.000    
     51      4      2     25       109.4           109.4           0.000    
     52      5      2     25       109.4           109.4           0.000    
     53      4      2     26       109.4           109.4           0.000    
     54      5      2     26       109.4           109.4           0.000    
     55      4      1     26       109.4           109.4           0.000    
     56      5      1     26       109.4           109.4           0.000    
     57      4      1     27       109.4           109.4           0.000    
     58      5      1     27       109.4           109.4           0.000    
     59      4      1     28       109.4           109.4           0.000    
     60      5      1     28       109.4           109.4           0.000    
     61      4      1     29       109.4           109.4           0.000    
     62      5      1     29       109.4           109.4           0.000    
     63      4      1     30       109.4           109.4           0.000    
     64      5      1     30       109.4           109.4           0.000    
     65      4      1     31       109.4           109.4           0.000    
     66      5      1     31       109.4           109.4           0.000    
     67      4      1     32       109.4           109.4           0.000    
     68      5      1     32       109.4           109.4           0.000    
     69      4      1     33       109.4           109.4           0.000    
     70      5      1     33       109.4           109.4           0.000    
     71      4      1     34       109.4           109.4           0.000    
     72      5      1     34       109.4           109.4           0.000    
     73      4      1     35       109.4           109.4           0.000    
     74      5      1     35       109.4           109.4           0.000    
     75      4     36     35       109.2           109.3           0.000    
     76      5     36     35       109.2           109.3           0.000    
     77      4     35     34       109.2           109.3           0.000    
     78      5     35     34       109.2           109.3           0.000    
     79      4     36     34       109.2           109.3           0.000    
     80      5     36     34       109.2           109.3           0.000    
     81      4     36     33       109.2           109.3           0.000    
     82      5     36     33       109.2           109.3           0.000    
     83      4     36     32       109.2           109.3           0.000    
     84      5     36     32       109.2           109.3           0.000    
     85      4     37     32       109.2           109.3           0.000    
     86      5     37     32       109.2           109.3           0.000    
     87      4     37     31       109.2           109.3           0.000    
     88      5     37     31       109.2           109.3           0.000    
     89      4     38     31       109.2           109.3           0.000    
     90      5     38     31       109.2           109.3           0.000    
     91      4     38     30       109.1           109.2           0.000    
     92      5     38     30       109.1           109.2           0.000    
     93      4     39     30       109.1           109.2           0.000    
     94      5     39     30       109.1           109.2           0.000    
     95      4     39     29       109.1           109.2           0.000    
     96      5     39     29       109.1           109.2           0.000    
     97      4     40     29       109.1           109.2           0.000    
     98      5     40     29       109.1           109.2           0.000    
     99      4     40     28       109.1           109.2           0.000    
    100      5     40     28       109.1           109.2           0.000    
    101      4     40     27       109.1           109.2           0.000    
    102      5     40     27       109.1           109.2           0.000    
    103      4     41     27       109.1           109.2           0.000    
    104      5     41     27       109.1           109.2           0.000    
    105      4     41     26       109.1           109.2           0.000    
    106      5     41     26       109.1           109.2           0.000    
    107      4     41     25       109.1           109.2           0.000    
    108      5     41     25       109.1           109.2           0.000    
    109      4     41     24       109.1           109.2           0.000    
    110      5     41     24       109.1           109.2           0.000    
    111      4     41     23       109.1           109.2           0.000    
    112      5     41     23       109.1           109.2           0.000    
    113      4     41     22       109.1           109.2           0.000    
    114      5     41     22       109.1           109.2           0.000    
    115      4     42     22       109.1           109.2           0.000    
    116      5     42     22       109.1           109.2           0.000    
    117      4     42     21       109.1           109.2           0.000    
    118      5     42     21       109.1           109.2           0.000    
    119      4     42     20       109.1           109.2           0.000    
    120      5     42     20       109.1           109.2           0.000    
    121      4     42     19       109.1           109.2           0.000    
    122      5     42     19       109.1           109.2           0.000    
    123      4     43     18       109.1           109.2           0.000    
    124      5     43     18       109.1           109.2           0.000    
    125      4     42     18       109.1           109.2           0.000    
    126      5     42     18       109.1           109.2           0.000    
    127      4     42     17       109.1           109.2           0.000    
    128      5     42     17       109.1           109.2           0.000    
    129      4     42     16       109.1           109.2           0.000    
    130      5     42     16       109.1           109.2           0.000    
    131      4     42     15       109.1           109.2           0.000    
    132      5     42     15       109.1           109.2           0.000    
    133      4     43     15       109.1           109.2           0.000    
    134      5     43     15       109.1           109.2           0.000    
    135      4     43     14       109.1           109.2           0.000    
    136      5     43     14       109.1           109.2           0.000    
    137      4     43     13       109.1           109.2           0.000    
    138      5     43     13       109.1           109.2           0.000    
    139      4     43     12       109.1           109.2           0.000    
    140      5     43     12       109.1           109.2           0.000    
    141      4     43     11       109.1           109.2           0.000    
    142      5     43     11       109.1           109.2           0.000    
    143      4     43     10       109.1           109.2           0.000    
    144      5     43     10       109.1           109.2           0.000    
    145      4     44     10       109.1           109.2           0.000    
    146      5     44     10       109.1           109.2           0.000    
    147      4     44      9       109.1           109.2           0.000    
    148      5     44      9       109.1           109.2           0.000    
    149      4     44      8       109.1           109.2           0.000    
    150      5     44      8       109.1           109.2           0.000    
    151      4     44      7       109.1           109.2           0.000    
    152      5     44      7       109.1           109.2           0.000    
    153      4     44      6       109.1           109.2           0.000    
    154      5     44      6       109.1           109.2           0.000    
    155      4     44      5       109.1           109.2           0.000    
    156      5     44      5       109.1           109.2           0.000    
    157      4     44      4       109.1           109.2           0.000    
    158      5     44      4       109.1           109.2           0.000    
    159      4     44      3       109.1           109.2           0.000    
    160      5     44      3       109.1           109.2           0.000    
    161      4     45      3       109.1           109.2           0.000    
    162      5     45      3       109.1           109.2           0.000    
    163      4     45      2       109.1           109.2           0.000    
    164      5     45      2       109.1           109.2           0.000    
    165      4     45      1       109.1           109.2           0.000    
    166      5     45      1       109.1           109.2           0.000    


    166 TIME-VARIANT SPECIFIED-HEAD CELLS

 SOLVING FOR HEAD 


     3 CALLS TO PCG ROUTINE FOR TIME STEP   1 IN STRESS PERIOD   53
    54 TOTAL ITERATIONS

 MAXIMUM HEAD CHANGE FOR EACH ITERATION (1 INDICATES THE FIRST INNER ITERATION):

    HEAD CHANGE    HEAD CHANGE    HEAD CHANGE    HEAD CHANGE    HEAD CHANGE 
   LAYER,ROW,COL  LAYER,ROW,COL  LAYER,ROW,COL  LAYER,ROW,COL  LAYER,ROW,COL
 ---------------------------------------------------------------------------
  1  0.2907      0 -0.1113      0 -0.1217      0  0.1518      0 -0.9954E-01
   (  5, 43,  5)  (  5, 40,  1)  (  5, 41,  1)  (  5, 38,  1)  (  5, 35,  1)
  0  0.5895E-01  0  0.4147E-01  0 -0.2544E-01  0  0.2637E-01  0 -0.2154E-01
   (  5, 33,  2)  (  5, 41,  5)  (  5, 40,  1)  (  5, 37,  1)  (  5, 40,  5)
  0  0.1689E-01  0 -0.1058E-01  0 -0.9300E-02  0  0.6953E-02  0 -0.5037E-02
   (  5, 39,  1)  (  5, 42,  1)  (  5, 36,  5)  (  5, 37,  8)  (  5, 14,  1)
  0  0.4064E-02  0 -0.2920E-02  0  0.1991E-02  0  0.1927E-02  0  0.1232E-02
   (  5, 14,  1)  (  5, 34,  1)  (  5, 31,  1)  (  5, 13,  1)  (  5, 39,  1)
  0 -0.9949E-03  0  0.8432E-03  0 -0.5745E-03  0 -0.4930E-03  0  0.2739E-03
   (  5, 37,  1)  (  5, 35,  1)  (  5, 36,  3)  (  5, 12,  1)  (  5, 12,  2)
  0 -0.1899E-03  0  0.1964E-03  0  0.1402E-03  0 -0.7418E-04  0  0.7753E-04
   (  5, 36,  7)  (  5, 38,  1)  (  5, 34,  6)  (  5, 36,  1)  (  5, 34,  1)
  1 -0.1727E-03  0  0.3818E-03  0 -0.2099E-03  0  0.2345E-03  0 -0.1393E-03
   (  5, 30,  1)  (  5, 41,  6)  (  5, 40,  4)  (  5, 37,  1)  (  5, 33,  1)
  0  0.9848E-04  0  0.8707E-04  0 -0.4423E-04  0  0.4547E-04  0 -0.3803E-04
   (  5, 37,  5)  (  5, 40,  4)  (  5, 19,  1)  (  5, 35,  1)  (  5, 32,  1)
  0  0.2701E-04  0  0.2843E-04  0  0.1600E-04  0  0.1010E-04  0 -0.9139E-05
   (  5, 36,  4)  (  5, 33,  9)  (  5, 33,  1)  (  5, 31,  4)  (  5, 31,  1)
  0  0.7649E-05  0 -0.5531E-05  0  0.3825E-05  0 -0.2693E-05  0  0.2241E-05
   (  5, 34,  1)  (  5, 33,  1)  (  5, 31,  7)  (  5, 36, 11)  (  5, 41,  1)
  0 -0.1133E-05  0 -0.1156E-05  0 -0.8054E-06  1  0.6990E-06
   (  5, 27, 10)  (  5, 26,  3)  (  5, 37,  3)  (  5, 35,  1)

 MAXIMUM RESIDUAL FOR EACH ITERATION (1 INDICATES THE FIRST INNER ITERATION):

    RESIDUAL       RESIDUAL       RESIDUAL       RESIDUAL       RESIDUAL    
   LAYER,ROW,COL  LAYER,ROW,COL  LAYER,ROW,COL  LAYER,ROW,COL  LAYER,ROW,COL
 ---------------------------------------------------------------------------
  1 -0.1189E-02  0 -0.8794E-03  0 -0.7200E-03  0 -0.5905E-03  0 -0.5015E-03
   (  4, 44,  2)  (  4, 35, 35)  (  4, 35, 35)  (  3, 40, 27)  (  3, 40, 27)
  0 -0.4115E-03  0 -0.3169E-03  0 -0.2534E-03  0 -0.2005E-03  0 -0.1506E-03
   (  3, 40, 27)  (  3, 40, 27)  (  3, 40, 27)  (  4, 35, 35)  (  4, 35, 35)
  0  0.1117E-03  0  0.8335E-04  0  0.5954E-04  0  0.4793E-04  0  0.3887E-04
   (  3, 35, 35)  (  3, 35, 35)  (  4, 34, 35)  (  4, 34, 35)  (  4, 34, 35)
  0  0.3079E-04  0  0.2609E-04  0  0.2279E-04  0  0.1789E-04  0  0.1361E-04
   (  4, 34, 35)  (  4, 34, 35)  (  4, 34, 35)  (  4, 34, 35)  (  4, 34, 35)
  0  0.1102E-04  0  0.9381E-05  0  0.7146E-05  0  0.5085E-05  0  0.3651E-05
   (  4, 34, 35)  (  4, 34, 35)  (  4, 34, 35)  (  4, 34, 35)  (  4, 34, 35)
  0  0.2589E-05  0  0.2112E-05  0  0.1508E-05  0 -0.1027E-05  0 -0.8329E-06
   (  4, 34, 35)  (  4, 34, 35)  (  4, 34, 35)  (  4, 35, 35)  (  4, 35, 35)
  1 -0.2811E-05  0 -0.1479E-05  0 -0.6655E-06  0 -0.5020E-06  0 -0.4399E-06
   (  3, 41,  5)  (  3, 41,  5)  (  3, 41,  5)  (  4, 43,  2)  (  4, 43,  2)
  0 -0.3575E-06  0 -0.3306E-06  0 -0.2957E-06  0 -0.2671E-06  0 -0.2350E-06
   (  4, 43,  2)  (  4, 40,  4)  (  4, 40,  4)  (  4, 44,  1)  (  4, 44,  1)
  0 -0.1902E-06  0 -0.1501E-06  0  0.1220E-06  0  0.9476E-07  0  0.8166E-07
   (  4, 44,  1)  (  4, 44,  1)  (  4, 43,  4)  (  4, 43,  4)  (  4, 43,  4)
  0  0.6303E-07  0  0.3803E-07  0  0.3192E-07  0  0.2575E-07  0  0.1889E-07
   (  4, 43,  4)  (  4, 44,  2)  (  4, 44,  2)  (  4, 44,  2)  (  4, 44,  2)
  0  0.1370E-07  0  0.9526E-08  0  0.7762E-08  1  0.7468E-08
   (  4, 44,  2)  (  4, 44,  2)  (  4, 44,  2)  (  4, 44,  2)



 OUTPUT CONTROL FOR STRESS PERIOD   53   TIME STEP    1
    SAVE HEAD FOR ALL LAYERS
    SAVE DRAWDOWN FOR ALL LAYERS
    SAVE BUDGET
    PRINT BUDGET
 UBDSV1 SAVING "         STORAGE" ON UNIT   9 AT TIME STEP  1, STRESS PERIOD  53
 UBDSV2 SAVING "   CONSTANT HEAD" ON UNIT   9 AT TIME STEP  1, STRESS PERIOD  53
 UBDSV1 SAVING "FLOW RIGHT FACE " ON UNIT   9 AT TIME STEP  1, STRESS PERIOD  53
 UBDSV1 SAVING "FLOW FRONT FACE " ON UNIT   9 AT TIME STEP  1, STRESS PERIOD  53
 UBDSV1 SAVING "FLOW LOWER FACE " ON UNIT   9 AT TIME STEP  1, STRESS PERIOD  53
 UBDSV3 SAVING "        RECHARGE" ON UNIT   9 AT TIME STEP  1, STRESS PERIOD  53

 HEAD WILL BE SAVED ON UNIT   37 AT END OF TIME STEP    1, STRESS PERIOD   53

 DRAWDOWN WILL BE SAVED ON UNIT   38 AT END OF TIME STEP    1, STRESS PERIOD   53
1
  VOLUMETRIC BUDGET FOR ENTIRE MODEL AT END OF TIME STEP    1, STRESS PERIOD  53
  ------------------------------------------------------------------------------

     CUMULATIVE VOLUMES      L**3       RATES FOR THIS TIME STEP      L**3/T
     ------------------                 ------------------------

           IN:                                      IN:
           ---                                      ---
             STORAGE =       10617.3711               STORAGE =       2.4932E-04
       CONSTANT HEAD =       14901.9941         CONSTANT HEAD =       1.8013E-03
            RECHARGE =         626.4995              RECHARGE =       1.0213E-04

            TOTAL IN =       26145.8652              TOTAL IN =       2.1528E-03

          OUT:                                     OUT:
          ----                                     ----
             STORAGE =        5122.2227               STORAGE =       1.0967E-03
       CONSTANT HEAD =       21024.3398         CONSTANT HEAD =       1.0562E-03
            RECHARGE =           0.0000              RECHARGE =           0.0000

           TOTAL OUT =       26146.5625             TOTAL OUT =       2.1529E-03

            IN - OUT =          -0.6973              IN - OUT =      -1.0338E-07

 PERCENT DISCREPANCY =          -0.00     PERCENT DISCREPANCY =          -0.00






         TIME SUMMARY AT END OF TIME STEP    1 IN STRESS PERIOD   53
                    SECONDS     MINUTES      HOURS       DAYS        YEARS
                    -----------------------------------------------------------
   TIME STEP LENGTH  86400.      1440.0      24.000      1.0000     2.73785E-03
 STRESS PERIOD TIME  86400.      1440.0      24.000      1.0000     2.73785E-03
         TOTAL TIME 6.13440E+06 1.02240E+05  1704.0      71.000     0.19439    
1
1
                            STRESS PERIOD NO.   54, LENGTH =   86400.00    
                            -----------------------------------------------

                              NUMBER OF TIME STEPS =     1

                               MULTIPLIER FOR DELT =     1.000

                            INITIAL TIME STEP SIZE =   86400.00    

 REUSING RECH FROM LAST STRESS PERIOD

 CHD NO.   LAYER   ROW   COL    START HEAD        END HEAD         IFACE           
 ----------------------------------------------------------------------------------
      1      4      3      1       109.4           109.5           0.000    
      2      5      3      1       109.4           109.5           0.000    
      3      4      3      2       109.4           109.5           0.000    
      4      5      3      2       109.4           109.5           0.000    
      5      4      3      3       109.4           109.5           0.000    
      6      5      3      3       109.4           109.5           0.000    
      7      4      3      4       109.4           109.5           0.000    
      8      5      3      4       109.4           109.5           0.000    
      9      4      3      5       109.4           109.5           0.000    
     10      5      3      5       109.4           109.5           0.000    
     11      4      3      6       109.4           109.5           0.000    
     12      5      3      6       109.4           109.5           0.000    
     13      4      3      7       109.4           109.5           0.000    
     14      5      3      7       109.4           109.5           0.000    
     15      4      3      8       109.4           109.5           0.000    
     16      5      3      8       109.4           109.5           0.000    
     17      4      2      8       109.4           109.5           0.000    
     18      5      2      8       109.4           109.5           0.000    
     19      4      2      9       109.4           109.5           0.000    
     20      5      2      9       109.4           109.5           0.000    
     21      4      2     10       109.4           109.5           0.000    
     22      5      2     10       109.4           109.5           0.000    
     23      4      2     11       109.4           109.5           0.000    
     24      5      2     11       109.4           109.5           0.000    
     25      4      2     12       109.4           109.5           0.000    
     26      5      2     12       109.4           109.5           0.000    
     27      4      2     13       109.4           109.5           0.000    
     28      5      2     13       109.4           109.5           0.000    
     29      4      2     14       109.4           109.5           0.000    
     30      5      2     14       109.4           109.5           0.000    
     31      4      2     15       109.4           109.5           0.000    
     32      5      2     15       109.4           109.5           0.000    
     33      4      2     16       109.4           109.5           0.000    
     34      5      2     16       109.4           109.5           0.000    
     35      4      2     17       109.4           109.5           0.000    
     36      5      2     17       109.4           109.5           0.000    
     37      4      2     18       109.4           109.5           0.000    
     38      5      2     18       109.4           109.5           0.000    
     39      4      2     19       109.4           109.5           0.000    
     40      5      2     19       109.4           109.5           0.000    
     41      4      2     20       109.4           109.5           0.000    
     42      5      2     20       109.4           109.5           0.000    
     43      4      2     21       109.4           109.5           0.000    
     44      5      2     21       109.4           109.5           0.000    
     45      4      2     22       109.4           109.5           0.000    
     46      5      2     22       109.4           109.5           0.000    
     47      4      2     23       109.4           109.5           0.000    
     48      5      2     23       109.4           109.5           0.000    
     49      4      2     24       109.4           109.5           0.000    
     50      5      2     24       109.4           109.5           0.000    
     51      4      2     25       109.4           109.5           0.000    
     52      5      2     25       109.4           109.5           0.000    
     53      4      2     26       109.4           109.5           0.000    
     54      5      2     26       109.4           109.5           0.000    
     55      4      1     26       109.4           109.5           0.000    
     56      5      1     26       109.4           109.5           0.000    
     57      4      1     27       109.4           109.5           0.000    
     58      5      1     27       109.4           109.5           0.000    
     59      4      1     28       109.4           109.5           0.000    
     60      5      1     28       109.4           109.5           0.000    
     61      4      1     29       109.4           109.5           0.000    
     62      5      1     29       109.4           109.5           0.000    
     63      4      1     30       109.4           109.5           0.000    
     64      5      1     30       109.4           109.5           0.000    
     65      4      1     31       109.4           109.5           0.000    
     66      5      1     31       109.4           109.5           0.000    
     67      4      1     32       109.4           109.5           0.000    
     68      5      1     32       109.4           109.5           0.000    
     69      4      1     33       109.4           109.5           0.000    
     70      5      1     33       109.4           109.5           0.000    
     71      4      1     34       109.4           109.5           0.000    
     72      5      1     34       109.4           109.5           0.000    
     73      4      1     35       109.4           109.5           0.000    
     74      5      1     35       109.4           109.5           0.000    
     75      4     36     35       109.3           109.3           0.000    
     76      5     36     35       109.3           109.3           0.000    
     77      4     35     34       109.3           109.3           0.000    
     78      5     35     34       109.3           109.3           0.000    
     79      4     36     34       109.3           109.3           0.000    
     80      5     36     34       109.3           109.3           0.000    
     81      4     36     33       109.3           109.3           0.000    
     82      5     36     33       109.3           109.3           0.000    
     83      4     36     32       109.3           109.3           0.000    
     84      5     36     32       109.3           109.3           0.000    
     85      4     37     32       109.3           109.3           0.000    
     86      5     37     32       109.3           109.3           0.000    
     87      4     37     31       109.3           109.3           0.000    
     88      5     37     31       109.3           109.3           0.000    
     89      4     38     31       109.3           109.3           0.000    
     90      5     38     31       109.3           109.3           0.000    
     91      4     38     30       109.2           109.2           0.000    
     92      5     38     30       109.2           109.2           0.000    
     93      4     39     30       109.2           109.2           0.000    
     94      5     39     30       109.2           109.2           0.000    
     95      4     39     29       109.2           109.2           0.000    
     96      5     39     29       109.2           109.2           0.000    
     97      4     40     29       109.2           109.2           0.000    
     98      5     40     29       109.2           109.2           0.000    
     99      4     40     28       109.2           109.2           0.000    
    100      5     40     28       109.2           109.2           0.000    
    101      4     40     27       109.2           109.2           0.000    
    102      5     40     27       109.2           109.2           0.000    
    103      4     41     27       109.2           109.2           0.000    
    104      5     41     27       109.2           109.2           0.000    
    105      4     41     26       109.2           109.2           0.000    
    106      5     41     26       109.2           109.2           0.000    
    107      4     41     25       109.2           109.2           0.000    
    108      5     41     25       109.2           109.2           0.000    
    109      4     41     24       109.2           109.2           0.000    
    110      5     41     24       109.2           109.2           0.000    
    111      4     41     23       109.2           109.2           0.000    
    112      5     41     23       109.2           109.2           0.000    
    113      4     41     22       109.2           109.2           0.000    
    114      5     41     22       109.2           109.2           0.000    
    115      4     42     22       109.2           109.2           0.000    
    116      5     42     22       109.2           109.2           0.000    
    117      4     42     21       109.2           109.2           0.000    
    118      5     42     21       109.2           109.2           0.000    
    119      4     42     20       109.2           109.2           0.000    
    120      5     42     20       109.2           109.2           0.000    
    121      4     42     19       109.2           109.2           0.000    
    122      5     42     19       109.2           109.2           0.000    
    123      4     43     18       109.2           109.2           0.000    
    124      5     43     18       109.2           109.2           0.000    
    125      4     42     18       109.2           109.2           0.000    
    126      5     42     18       109.2           109.2           0.000    
    127      4     42     17       109.2           109.2           0.000    
    128      5     42     17       109.2           109.2           0.000    
    129      4     42     16       109.2           109.2           0.000    
    130      5     42     16       109.2           109.2           0.000    
    131      4     42     15       109.2           109.2           0.000    
    132      5     42     15       109.2           109.2           0.000    
    133      4     43     15       109.2           109.2           0.000    
    134      5     43     15       109.2           109.2           0.000    
    135      4     43     14       109.2           109.2           0.000    
    136      5     43     14       109.2           109.2           0.000    
    137      4     43     13       109.2           109.2           0.000    
    138      5     43     13       109.2           109.2           0.000    
    139      4     43     12       109.2           109.2           0.000    
    140      5     43     12       109.2           109.2           0.000    
    141      4     43     11       109.2           109.2           0.000    
    142      5     43     11       109.2           109.2           0.000    
    143      4     43     10       109.2           109.2           0.000    
    144      5     43     10       109.2           109.2           0.000    
    145      4     44     10       109.2           109.2           0.000    
    146      5     44     10       109.2           109.2           0.000    
    147      4     44      9       109.2           109.2           0.000    
    148      5     44      9       109.2           109.2           0.000    
    149      4     44      8       109.2           109.2           0.000    
    150      5     44      8       109.2           109.2           0.000    
    151      4     44      7       109.2           109.2           0.000    
    152      5     44      7       109.2           109.2           0.000    
    153      4     44      6       109.2           109.2           0.000    
    154      5     44      6       109.2           109.2           0.000    
    155      4     44      5       109.2           109.2           0.000    
    156      5     44      5       109.2           109.2           0.000    
    157      4     44      4       109.2           109.2           0.000    
    158      5     44      4       109.2           109.2           0.000    
    159      4     44      3       109.2           109.2           0.000    
    160      5     44      3       109.2           109.2           0.000    
    161      4     45      3       109.2           109.2           0.000    
    162      5     45      3       109.2           109.2           0.000    
    163      4     45      2       109.2           109.2           0.000    
    164      5     45      2       109.2           109.2           0.000    
    165      4     45      1       109.2           109.2           0.000    
    166      5     45      1       109.2           109.2           0.000    


    166 TIME-VARIANT SPECIFIED-HEAD CELLS

 SOLVING FOR HEAD 


     3 CALLS TO PCG ROUTINE FOR TIME STEP   1 IN STRESS PERIOD   54
    48 TOTAL ITERATIONS

 MAXIMUM HEAD CHANGE FOR EACH ITERATION (1 INDICATES THE FIRST INNER ITERATION):

    HEAD CHANGE    HEAD CHANGE    HEAD CHANGE    HEAD CHANGE    HEAD CHANGE 
   LAYER,ROW,COL  LAYER,ROW,COL  LAYER,ROW,COL  LAYER,ROW,COL  LAYER,ROW,COL
 ---------------------------------------------------------------------------
  1  0.4347E-01  0 -0.3318E-01  0  0.2137E-01  0 -0.1150E-01  0  0.9311E-02
   (  3,  4,  4)  (  5, 35,  1)  (  5, 32,  1)  (  5, 27,  1)  (  5, 24,  2)
  0 -0.6606E-02  0  0.6176E-02  0  0.4781E-02  0  0.4789E-02  0  0.5046E-02
   (  5, 26,  3)  (  5, 26,  2)  (  5, 34,  1)  (  5, 31,  4)  (  5, 38,  1)
  0 -0.3243E-02  0  0.2478E-02  0 -0.1333E-02  0 -0.1010E-02  0  0.9570E-03
   (  5, 39,  1)  (  5, 39,  1)  (  5, 40,  1)  (  5, 32,  9)  (  5, 29,  9)
  0 -0.4985E-03  0  0.3923E-03  0 -0.3018E-03  0  0.2797E-03  0 -0.1934E-03
   (  5, 27,  8)  (  5, 30,  1)  (  5, 33,  1)  (  5, 37,  3)  (  5, 15,  2)
  0  0.1899E-03  0 -0.1226E-03  0 -0.9892E-04  0  0.1078E-03  0 -0.7242E-04
   (  5, 33,  1)  (  5, 36,  1)  (  5, 14,  1)  (  5, 13,  1)  (  5, 12,  1)
  0  0.4239E-04  0  0.2657E-04  0  0.2722E-04  0 -0.1705E-04  0  0.1052E-04
   (  5, 13,  1)  (  5, 41,  1)  (  5, 37,  2)  (  5, 39,  1)  (  5, 23,  4)
  1  0.4697E-04  0  0.4273E-04  0  0.4244E-04  0 -0.2826E-04  0  0.2425E-04
   (  3, 19,  9)  (  3, 19,  9)  (  5, 32,  2)  (  5, 33,  1)  (  5, 23,  1)
  0  0.1887E-04  0 -0.1978E-04  0  0.2178E-04  0 -0.9312E-05  0  0.5553E-05
   (  5, 34,  2)  (  5, 36,  1)  (  5, 38,  1)  (  5, 39,  1)  (  5, 35,  1)
  0  0.6208E-05  0 -0.4195E-05  0  0.2240E-05  0 -0.1793E-05  0  0.2166E-05
   (  5, 40,  1)  (  5, 15,  1)  (  5, 14,  1)  (  5, 13,  1)  (  5, 13,  1)
  0 -0.1097E-05  0  0.7289E-06  1 -0.4842E-06
   (  5, 13,  2)  (  5, 34,  1)  (  5, 34,  1)

 MAXIMUM RESIDUAL FOR EACH ITERATION (1 INDICATES THE FIRST INNER ITERATION):

    RESIDUAL       RESIDUAL       RESIDUAL       RESIDUAL       RESIDUAL    
   LAYER,ROW,COL  LAYER,ROW,COL  LAYER,ROW,COL  LAYER,ROW,COL  LAYER,ROW,COL
 ---------------------------------------------------------------------------
  1 -0.1577E-03  0 -0.1218E-03  0  0.9588E-04  0  0.8728E-04  0  0.7552E-04
   (  3,  3,  1)  (  3,  3,  1)  (  3,  4,  4)  (  3,  4,  4)  (  3,  4,  4)
  0  0.6061E-04  0  0.4392E-04  0  0.3282E-04  0  0.2721E-04  0  0.2192E-04
   (  3,  4,  3)  (  3,  4,  3)  (  3,  3,  9)  (  3,  3,  9)  (  3,  3,  9)
  0  0.1662E-04  0  0.1283E-04  0  0.9657E-05  0  0.7233E-05  0  0.5392E-05
   (  3,  3,  9)  (  3,  3,  9)  (  3,  3,  9)  (  3,  3,  9)  (  3,  3,  8)
  0  0.4271E-05  0  0.3462E-05  0  0.3074E-05  0  0.2251E-05  0  0.1574E-05
   (  3,  3,  7)  (  3,  3,  7)  (  3,  3,  7)  (  3,  3,  2)  (  3,  3,  2)
  0  0.1111E-05  0  0.9142E-06  0  0.6392E-06  0  0.4683E-06  0  0.3461E-06
   (  3,  3,  2)  (  3,  3,  2)  (  3,  3,  2)  (  3,  3,  2)  (  3,  3,  2)
  0  0.2534E-06  0 -0.1977E-06  0 -0.1498E-06  0 -0.1261E-06  0 -0.9542E-07
   (  3,  3,  2)  (  3,  3,  9)  (  3,  3,  9)  (  3,  3,  9)  (  3,  3,  9)
  1 -0.3409E-06  0  0.2567E-06  0  0.2120E-06  0  0.1784E-06  0  0.1366E-06
   (  3, 19,  9)  (  2,  2, 26)  (  2,  2, 26)  (  2,  2, 26)  (  2,  2, 26)
  0  0.1098E-06  0  0.8636E-07  0  0.6967E-07  0  0.5522E-07  0  0.4395E-07
   (  2,  2, 26)  (  2,  2, 26)  (  2,  2, 26)  (  2,  2, 26)  (  2,  2, 26)
  0  0.3449E-07  0  0.2693E-07  0  0.1970E-07  0  0.1437E-07  0  0.1059E-07
   (  2,  2, 26)  (  2,  2, 26)  (  2,  2, 26)  (  2,  2, 26)  (  2,  2, 26)
  0  0.8117E-08  0  0.6400E-08  1  0.5997E-08
   (  2,  2, 26)  (  2,  2, 26)  (  2,  2, 26)



 OUTPUT CONTROL FOR STRESS PERIOD   54   TIME STEP    1
    SAVE HEAD FOR ALL LAYERS
    SAVE DRAWDOWN FOR ALL LAYERS
    SAVE BUDGET
    PRINT BUDGET
 UBDSV1 SAVING "         STORAGE" ON UNIT   9 AT TIME STEP  1, STRESS PERIOD  54
 UBDSV2 SAVING "   CONSTANT HEAD" ON UNIT   9 AT TIME STEP  1, STRESS PERIOD  54
 UBDSV1 SAVING "FLOW RIGHT FACE " ON UNIT   9 AT TIME STEP  1, STRESS PERIOD  54
 UBDSV1 SAVING "FLOW FRONT FACE " ON UNIT   9 AT TIME STEP  1, STRESS PERIOD  54
 UBDSV1 SAVING "FLOW LOWER FACE " ON UNIT   9 AT TIME STEP  1, STRESS PERIOD  54
 UBDSV3 SAVING "        RECHARGE" ON UNIT   9 AT TIME STEP  1, STRESS PERIOD  54

 HEAD WILL BE SAVED ON UNIT   37 AT END OF TIME STEP    1, STRESS PERIOD   54

 DRAWDOWN WILL BE SAVED ON UNIT   38 AT END OF TIME STEP    1, STRESS PERIOD   54
1
  VOLUMETRIC BUDGET FOR ENTIRE MODEL AT END OF TIME STEP    1, STRESS PERIOD  54
  ------------------------------------------------------------------------------

     CUMULATIVE VOLUMES      L**3       RATES FOR THIS TIME STEP      L**3/T
     ------------------                 ------------------------

           IN:                                      IN:
           ---                                      ---
             STORAGE =       10617.3711               STORAGE =           0.0000
       CONSTANT HEAD =       15125.4658         CONSTANT HEAD =       2.5865E-03
            RECHARGE =         635.3234              RECHARGE =       1.0213E-04

            TOTAL IN =       26378.1602              TOTAL IN =       2.6886E-03

          OUT:                                     OUT:
          ----                                     ----
             STORAGE =        5182.7217               STORAGE =       7.0022E-04
       CONSTANT HEAD =       21196.1445         CONSTANT HEAD =       1.9885E-03
            RECHARGE =           0.0000              RECHARGE =           0.0000

           TOTAL OUT =       26378.8672             TOTAL OUT =       2.6887E-03

            IN - OUT =          -0.7070              IN - OUT =      -1.0314E-07

 PERCENT DISCREPANCY =          -0.00     PERCENT DISCREPANCY =          -0.00






         TIME SUMMARY AT END OF TIME STEP    1 IN STRESS PERIOD   54
                    SECONDS     MINUTES      HOURS       DAYS        YEARS
                    -----------------------------------------------------------
   TIME STEP LENGTH  86400.      1440.0      24.000      1.0000     2.73785E-03
 STRESS PERIOD TIME  86400.      1440.0      24.000      1.0000     2.73785E-03
         TOTAL TIME 6.22080E+06 1.03680E+05  1728.0      72.000     0.19713    
1
1
                            STRESS PERIOD NO.   55, LENGTH =   86400.00    
                            -----------------------------------------------

                              NUMBER OF TIME STEPS =     1

                               MULTIPLIER FOR DELT =     1.000

                            INITIAL TIME STEP SIZE =   86400.00    

 REUSING RECH FROM LAST STRESS PERIOD

 CHD NO.   LAYER   ROW   COL    START HEAD        END HEAD         IFACE           
 ----------------------------------------------------------------------------------
      1      4      3      1       109.5           109.4           0.000    
      2      5      3      1       109.5           109.4           0.000    
      3      4      3      2       109.5           109.4           0.000    
      4      5      3      2       109.5           109.4           0.000    
      5      4      3      3       109.5           109.4           0.000    
      6      5      3      3       109.5           109.4           0.000    
      7      4      3      4       109.5           109.4           0.000    
      8      5      3      4       109.5           109.4           0.000    
      9      4      3      5       109.5           109.4           0.000    
     10      5      3      5       109.5           109.4           0.000    
     11      4      3      6       109.5           109.4           0.000    
     12      5      3      6       109.5           109.4           0.000    
     13      4      3      7       109.5           109.4           0.000    
     14      5      3      7       109.5           109.4           0.000    
     15      4      3      8       109.5           109.4           0.000    
     16      5      3      8       109.5           109.4           0.000    
     17      4      2      8       109.5           109.4           0.000    
     18      5      2      8       109.5           109.4           0.000    
     19      4      2      9       109.5           109.4           0.000    
     20      5      2      9       109.5           109.4           0.000    
     21      4      2     10       109.5           109.4           0.000    
     22      5      2     10       109.5           109.4           0.000    
     23      4      2     11       109.5           109.4           0.000    
     24      5      2     11       109.5           109.4           0.000    
     25      4      2     12       109.5           109.4           0.000    
     26      5      2     12       109.5           109.4           0.000    
     27      4      2     13       109.5           109.4           0.000    
     28      5      2     13       109.5           109.4           0.000    
     29      4      2     14       109.5           109.4           0.000    
     30      5      2     14       109.5           109.4           0.000    
     31      4      2     15       109.5           109.4           0.000    
     32      5      2     15       109.5           109.4           0.000    
     33      4      2     16       109.5           109.4           0.000    
     34      5      2     16       109.5           109.4           0.000    
     35      4      2     17       109.5           109.4           0.000    
     36      5      2     17       109.5           109.4           0.000    
     37      4      2     18       109.5           109.4           0.000    
     38      5      2     18       109.5           109.4           0.000    
     39      4      2     19       109.5           109.4           0.000    
     40      5      2     19       109.5           109.4           0.000    
     41      4      2     20       109.5           109.4           0.000    
     42      5      2     20       109.5           109.4           0.000    
     43      4      2     21       109.5           109.4           0.000    
     44      5      2     21       109.5           109.4           0.000    
     45      4      2     22       109.5           109.4           0.000    
     46      5      2     22       109.5           109.4           0.000    
     47      4      2     23       109.5           109.4           0.000    
     48      5      2     23       109.5           109.4           0.000    
     49      4      2     24       109.5           109.4           0.000    
     50      5      2     24       109.5           109.4           0.000    
     51      4      2     25       109.5           109.4           0.000    
     52      5      2     25       109.5           109.4           0.000    
     53      4      2     26       109.5           109.4           0.000    
     54      5      2     26       109.5           109.4           0.000    
     55      4      1     26       109.5           109.4           0.000    
     56      5      1     26       109.5           109.4           0.000    
     57      4      1     27       109.5           109.4           0.000    
     58      5      1     27       109.5           109.4           0.000    
     59      4      1     28       109.5           109.4           0.000    
     60      5      1     28       109.5           109.4           0.000    
     61      4      1     29       109.5           109.4           0.000    
     62      5      1     29       109.5           109.4           0.000    
     63      4      1     30       109.5           109.4           0.000    
     64      5      1     30       109.5           109.4           0.000    
     65      4      1     31       109.5           109.4           0.000    
     66      5      1     31       109.5           109.4           0.000    
     67      4      1     32       109.5           109.4           0.000    
     68      5      1     32       109.5           109.4           0.000    
     69      4      1     33       109.5           109.4           0.000    
     70      5      1     33       109.5           109.4           0.000    
     71      4      1     34       109.5           109.4           0.000    
     72      5      1     34       109.5           109.4           0.000    
     73      4      1     35       109.5           109.4           0.000    
     74      5      1     35       109.5           109.4           0.000    
     75      4     36     35       109.3           109.2           0.000    
     76      5     36     35       109.3           109.2           0.000    
     77      4     35     34       109.3           109.2           0.000    
     78      5     35     34       109.3           109.2           0.000    
     79      4     36     34       109.3           109.2           0.000    
     80      5     36     34       109.3           109.2           0.000    
     81      4     36     33       109.3           109.2           0.000    
     82      5     36     33       109.3           109.2           0.000    
     83      4     36     32       109.3           109.2           0.000    
     84      5     36     32       109.3           109.2           0.000    
     85      4     37     32       109.3           109.2           0.000    
     86      5     37     32       109.3           109.2           0.000    
     87      4     37     31       109.3           109.2           0.000    
     88      5     37     31       109.3           109.2           0.000    
     89      4     38     31       109.3           109.2           0.000    
     90      5     38     31       109.3           109.2           0.000    
     91      4     38     30       109.2           109.2           0.000    
     92      5     38     30       109.2           109.2           0.000    
     93      4     39     30       109.2           109.2           0.000    
     94      5     39     30       109.2           109.2           0.000    
     95      4     39     29       109.2           109.2           0.000    
     96      5     39     29       109.2           109.2           0.000    
     97      4     40     29       109.2           109.2           0.000    
     98      5     40     29       109.2           109.2           0.000    
     99      4     40     28       109.2           109.2           0.000    
    100      5     40     28       109.2           109.2           0.000    
    101      4     40     27       109.2           109.2           0.000    
    102      5     40     27       109.2           109.2           0.000    
    103      4     41     27       109.2           109.2           0.000    
    104      5     41     27       109.2           109.2           0.000    
    105      4     41     26       109.2           109.2           0.000    
    106      5     41     26       109.2           109.2           0.000    
    107      4     41     25       109.2           109.2           0.000    
    108      5     41     25       109.2           109.2           0.000    
    109      4     41     24       109.2           109.2           0.000    
    110      5     41     24       109.2           109.2           0.000    
    111      4     41     23       109.2           109.2           0.000    
    112      5     41     23       109.2           109.2           0.000    
    113      4     41     22       109.2           109.2           0.000    
    114      5     41     22       109.2           109.2           0.000    
    115      4     42     22       109.2           109.2           0.000    
    116      5     42     22       109.2           109.2           0.000    
    117      4     42     21       109.2           109.2           0.000    
    118      5     42     21       109.2           109.2           0.000    
    119      4     42     20       109.2           109.2           0.000    
    120      5     42     20       109.2           109.2           0.000    
    121      4     42     19       109.2           109.2           0.000    
    122      5     42     19       109.2           109.2           0.000    
    123      4     43     18       109.2           109.2           0.000    
    124      5     43     18       109.2           109.2           0.000    
    125      4     42     18       109.2           109.2           0.000    
    126      5     42     18       109.2           109.2           0.000    
    127      4     42     17       109.2           109.2           0.000    
    128      5     42     17       109.2           109.2           0.000    
    129      4     42     16       109.2           109.2           0.000    
    130      5     42     16       109.2           109.2           0.000    
    131      4     42     15       109.2           109.2           0.000    
    132      5     42     15       109.2           109.2           0.000    
    133      4     43     15       109.2           109.2           0.000    
    134      5     43     15       109.2           109.2           0.000    
    135      4     43     14       109.2           109.2           0.000    
    136      5     43     14       109.2           109.2           0.000    
    137      4     43     13       109.2           109.2           0.000    
    138      5     43     13       109.2           109.2           0.000    
    139      4     43     12       109.2           109.2           0.000    
    140      5     43     12       109.2           109.2           0.000    
    141      4     43     11       109.2           109.2           0.000    
    142      5     43     11       109.2           109.2           0.000    
    143      4     43     10       109.2           109.2           0.000    
    144      5     43     10       109.2           109.2           0.000    
    145      4     44     10       109.2           109.2           0.000    
    146      5     44     10       109.2           109.2           0.000    
    147      4     44      9       109.2           109.2           0.000    
    148      5     44      9       109.2           109.2           0.000    
    149      4     44      8       109.2           109.2           0.000    
    150      5     44      8       109.2           109.2           0.000    
    151      4     44      7       109.2           109.2           0.000    
    152      5     44      7       109.2           109.2           0.000    
    153      4     44      6       109.2           109.2           0.000    
    154      5     44      6       109.2           109.2           0.000    
    155      4     44      5       109.2           109.2           0.000    
    156      5     44      5       109.2           109.2           0.000    
    157      4     44      4       109.2           109.2           0.000    
    158      5     44      4       109.2           109.2           0.000    
    159      4     44      3       109.2           109.2           0.000    
    160      5     44      3       109.2           109.2           0.000    
    161      4     45      3       109.2           109.2           0.000    
    162      5     45      3       109.2           109.2           0.000    
    163      4     45      2       109.2           109.2           0.000    
    164      5     45      2       109.2           109.2           0.000    
    165      4     45      1       109.2           109.2           0.000    
    166      5     45      1       109.2           109.2           0.000    


    166 TIME-VARIANT SPECIFIED-HEAD CELLS

 SOLVING FOR HEAD 


     3 CALLS TO PCG ROUTINE FOR TIME STEP   1 IN STRESS PERIOD   55
    46 TOTAL ITERATIONS

 MAXIMUM HEAD CHANGE FOR EACH ITERATION (1 INDICATES THE FIRST INNER ITERATION):

    HEAD CHANGE    HEAD CHANGE    HEAD CHANGE    HEAD CHANGE    HEAD CHANGE 
   LAYER,ROW,COL  LAYER,ROW,COL  LAYER,ROW,COL  LAYER,ROW,COL  LAYER,ROW,COL
 ---------------------------------------------------------------------------
  1 -0.3538E-01  0 -0.1830E-01  0  0.1938E-01  0 -0.2616E-01  0  0.1720E-01
   (  3,  4,  4)  (  5, 28,  1)  (  5, 41,  1)  (  5, 38,  1)  (  5, 35,  1)
  0 -0.1050E-01  0 -0.6479E-02  0 -0.4677E-02  0 -0.4489E-02  0  0.2644E-02
   (  5, 33,  2)  (  5, 29,  7)  (  5, 30,  3)  (  5, 37,  1)  (  5, 17,  1)
  0 -0.2120E-02  0  0.1697E-02  0 -0.1120E-02  0 -0.9072E-03  0  0.6963E-03
   (  5, 13,  1)  (  5, 38,  1)  (  5, 40,  1)  (  5, 35,  6)  (  5, 14,  1)
  0 -0.7566E-03  0 -0.4649E-03  0 -0.3188E-03  0  0.2623E-03  0 -0.2187E-03
   (  5, 15,  1)  (  5, 34,  8)  (  5, 33,  1)  (  5, 32,  3)  (  5, 15,  1)
  0 -0.1443E-03  0 -0.1722E-03  0 -0.9059E-04  0 -0.6205E-04  0 -0.4036E-04
   (  5, 24,  2)  (  5, 35,  1)  (  5, 26,  8)  (  5, 13,  5)  (  5, 13,  2)
  0  0.2813E-04  0 -0.3447E-04  0  0.2718E-04  0  0.1794E-04  0 -0.1397E-04
   (  5, 13,  1)  (  5, 38,  1)  (  5, 35,  1)  (  5, 12,  1)  (  5, 39,  1)
  1  0.1609E-04  0  0.2349E-04  0 -0.1729E-04  0 -0.1537E-04  0 -0.1203E-04
   (  5, 40,  1)  (  5, 30,  1)  (  5, 39,  2)  (  5, 12,  2)  (  5, 36,  2)
  0 -0.8465E-05  0 -0.6892E-05  0  0.5647E-05  0 -0.6168E-05  0  0.3840E-05
   (  5, 23,  2)  (  5, 33,  2)  (  5, 35,  1)  (  5, 37,  1)  (  5, 40,  2)
  0 -0.2790E-05  0  0.1811E-05  0 -0.1316E-05  0 -0.1119E-05  0  0.8574E-06
   (  5, 41,  2)  (  5, 39,  1)  (  5, 39,  1)  (  5, 13,  2)  (  5, 13,  1)
  1 -0.8105E-06
   (  5, 13,  1)

 MAXIMUM RESIDUAL FOR EACH ITERATION (1 INDICATES THE FIRST INNER ITERATION):

    RESIDUAL       RESIDUAL       RESIDUAL       RESIDUAL       RESIDUAL    
   LAYER,ROW,COL  LAYER,ROW,COL  LAYER,ROW,COL  LAYER,ROW,COL  LAYER,ROW,COL
 ---------------------------------------------------------------------------
  1  0.1468E-03  0  0.1248E-03  0  0.9463E-04  0  0.7241E-04  0  0.6008E-04
   (  3,  3,  1)  (  3,  3,  1)  (  3,  3,  1)  (  3,  3,  1)  (  3,  3,  1)
  0  0.4887E-04  0  0.3801E-04  0  0.3000E-04  0  0.2433E-04  0  0.1765E-04
   (  3,  3,  1)  (  3,  3,  1)  (  3,  3,  1)  (  3,  3,  1)  (  3,  3,  1)
  0 -0.1332E-04  0 -0.1032E-04  0 -0.7977E-05  0  0.6203E-05  0  0.4826E-05
   (  3,  3,  9)  (  3,  3,  9)  (  3,  3,  9)  (  3,  3,  1)  (  3,  3,  1)
  0  0.3628E-05  0  0.2766E-05  0  0.2245E-05  0 -0.1852E-05  0 -0.1356E-05
   (  3,  3,  1)  (  3,  3,  1)  (  3,  3,  1)  (  3,  3,  2)  (  3,  3,  2)
  0 -0.1085E-05  0 -0.8865E-06  0 -0.6670E-06  0 -0.4787E-06  0 -0.3598E-06
   (  3,  3,  2)  (  3,  3,  2)  (  3,  3,  2)  (  3,  3,  2)  (  3,  3,  2)
  0 -0.2723E-06  0 -0.2254E-06  0 -0.1556E-06  0 -0.1011E-06  0 -0.7231E-07
   (  3,  3,  2)  (  3,  3,  2)  (  3,  3,  2)  (  3,  3,  2)  (  3,  3,  2)
  1 -0.1384E-06  0 -0.1194E-06  0 -0.1041E-06  0 -0.8114E-07  0 -0.5929E-07
   (  2,  2, 26)  (  2,  2, 26)  (  2,  2, 26)  (  2,  2, 26)  (  2,  2, 26)
  0 -0.4991E-07  0 -0.3683E-07  0 -0.3025E-07  0 -0.2475E-07  0 -0.2035E-07
   (  2,  2, 26)  (  2,  2, 26)  (  2,  2, 26)  (  2,  2, 26)  (  2,  2, 26)
  0 -0.1629E-07  0 -0.1291E-07  0 -0.9960E-08  0 -0.7506E-08  0 -0.5085E-08
   (  2,  2, 26)  (  2,  2, 26)  (  2,  2, 26)  (  2,  2, 26)  (  2,  2, 26)
  1 -0.4852E-08
   (  2,  2, 26)



 OUTPUT CONTROL FOR STRESS PERIOD   55   TIME STEP    1
    SAVE HEAD FOR ALL LAYERS
    SAVE DRAWDOWN FOR ALL LAYERS
    SAVE BUDGET
    PRINT BUDGET
 UBDSV1 SAVING "         STORAGE" ON UNIT   9 AT TIME STEP  1, STRESS PERIOD  55
 UBDSV2 SAVING "   CONSTANT HEAD" ON UNIT   9 AT TIME STEP  1, STRESS PERIOD  55
 UBDSV1 SAVING "FLOW RIGHT FACE " ON UNIT   9 AT TIME STEP  1, STRESS PERIOD  55
 UBDSV1 SAVING "FLOW FRONT FACE " ON UNIT   9 AT TIME STEP  1, STRESS PERIOD  55
 UBDSV1 SAVING "FLOW LOWER FACE " ON UNIT   9 AT TIME STEP  1, STRESS PERIOD  55
 UBDSV3 SAVING "        RECHARGE" ON UNIT   9 AT TIME STEP  1, STRESS PERIOD  55

 HEAD WILL BE SAVED ON UNIT   37 AT END OF TIME STEP    1, STRESS PERIOD   55

 DRAWDOWN WILL BE SAVED ON UNIT   38 AT END OF TIME STEP    1, STRESS PERIOD   55
1
  VOLUMETRIC BUDGET FOR ENTIRE MODEL AT END OF TIME STEP    1, STRESS PERIOD  55
  ------------------------------------------------------------------------------

     CUMULATIVE VOLUMES      L**3       RATES FOR THIS TIME STEP      L**3/T
     ------------------                 ------------------------

           IN:                                      IN:
           ---                                      ---
             STORAGE =       10650.2529               STORAGE =       3.8058E-04
       CONSTANT HEAD =       15275.2344         CONSTANT HEAD =       1.7334E-03
            RECHARGE =         644.1473              RECHARGE =       1.0213E-04

            TOTAL IN =       26569.6348              TOTAL IN =       2.2161E-03

          OUT:                                     OUT:
          ----                                     ----
             STORAGE =        5182.7217               STORAGE =           0.0000
       CONSTANT HEAD =       21387.6270         CONSTANT HEAD =       2.2162E-03
            RECHARGE =           0.0000              RECHARGE =           0.0000

           TOTAL OUT =       26570.3477             TOTAL OUT =       2.2162E-03

            IN - OUT =          -0.7129              IN - OUT =      -9.8953E-08

 PERCENT DISCREPANCY =          -0.00     PERCENT DISCREPANCY =          -0.00






         TIME SUMMARY AT END OF TIME STEP    1 IN STRESS PERIOD   55
                    SECONDS     MINUTES      HOURS       DAYS        YEARS
                    -----------------------------------------------------------
   TIME STEP LENGTH  86400.      1440.0      24.000      1.0000     2.73785E-03
 STRESS PERIOD TIME  86400.      1440.0      24.000      1.0000     2.73785E-03
         TOTAL TIME 6.30720E+06 1.05120E+05  1752.0      73.000     0.19986    
1
1
                            STRESS PERIOD NO.   56, LENGTH =   86400.00    
                            -----------------------------------------------

                              NUMBER OF TIME STEPS =     1

                               MULTIPLIER FOR DELT =     1.000

                            INITIAL TIME STEP SIZE =   86400.00    

 REUSING RECH FROM LAST STRESS PERIOD

 CHD NO.   LAYER   ROW   COL    START HEAD        END HEAD         IFACE           
 ----------------------------------------------------------------------------------
      1      4      3      1       109.4           109.4           0.000    
      2      5      3      1       109.4           109.4           0.000    
      3      4      3      2       109.4           109.4           0.000    
      4      5      3      2       109.4           109.4           0.000    
      5      4      3      3       109.4           109.4           0.000    
      6      5      3      3       109.4           109.4           0.000    
      7      4      3      4       109.4           109.4           0.000    
      8      5      3      4       109.4           109.4           0.000    
      9      4      3      5       109.4           109.4           0.000    
     10      5      3      5       109.4           109.4           0.000    
     11      4      3      6       109.4           109.4           0.000    
     12      5      3      6       109.4           109.4           0.000    
     13      4      3      7       109.4           109.4           0.000    
     14      5      3      7       109.4           109.4           0.000    
     15      4      3      8       109.4           109.4           0.000    
     16      5      3      8       109.4           109.4           0.000    
     17      4      2      8       109.4           109.4           0.000    
     18      5      2      8       109.4           109.4           0.000    
     19      4      2      9       109.4           109.4           0.000    
     20      5      2      9       109.4           109.4           0.000    
     21      4      2     10       109.4           109.4           0.000    
     22      5      2     10       109.4           109.4           0.000    
     23      4      2     11       109.4           109.4           0.000    
     24      5      2     11       109.4           109.4           0.000    
     25      4      2     12       109.4           109.4           0.000    
     26      5      2     12       109.4           109.4           0.000    
     27      4      2     13       109.4           109.4           0.000    
     28      5      2     13       109.4           109.4           0.000    
     29      4      2     14       109.4           109.4           0.000    
     30      5      2     14       109.4           109.4           0.000    
     31      4      2     15       109.4           109.4           0.000    
     32      5      2     15       109.4           109.4           0.000    
     33      4      2     16       109.4           109.4           0.000    
     34      5      2     16       109.4           109.4           0.000    
     35      4      2     17       109.4           109.4           0.000    
     36      5      2     17       109.4           109.4           0.000    
     37      4      2     18       109.4           109.4           0.000    
     38      5      2     18       109.4           109.4           0.000    
     39      4      2     19       109.4           109.4           0.000    
     40      5      2     19       109.4           109.4           0.000    
     41      4      2     20       109.4           109.4           0.000    
     42      5      2     20       109.4           109.4           0.000    
     43      4      2     21       109.4           109.4           0.000    
     44      5      2     21       109.4           109.4           0.000    
     45      4      2     22       109.4           109.4           0.000    
     46      5      2     22       109.4           109.4           0.000    
     47      4      2     23       109.4           109.4           0.000    
     48      5      2     23       109.4           109.4           0.000    
     49      4      2     24       109.4           109.4           0.000    
     50      5      2     24       109.4           109.4           0.000    
     51      4      2     25       109.4           109.4           0.000    
     52      5      2     25       109.4           109.4           0.000    
     53      4      2     26       109.4           109.4           0.000    
     54      5      2     26       109.4           109.4           0.000    
     55      4      1     26       109.4           109.4           0.000    
     56      5      1     26       109.4           109.4           0.000    
     57      4      1     27       109.4           109.4           0.000    
     58      5      1     27       109.4           109.4           0.000    
     59      4      1     28       109.4           109.4           0.000    
     60      5      1     28       109.4           109.4           0.000    
     61      4      1     29       109.4           109.4           0.000    
     62      5      1     29       109.4           109.4           0.000    
     63      4      1     30       109.4           109.4           0.000    
     64      5      1     30       109.4           109.4           0.000    
     65      4      1     31       109.4           109.4           0.000    
     66      5      1     31       109.4           109.4           0.000    
     67      4      1     32       109.4           109.4           0.000    
     68      5      1     32       109.4           109.4           0.000    
     69      4      1     33       109.4           109.4           0.000    
     70      5      1     33       109.4           109.4           0.000    
     71      4      1     34       109.4           109.4           0.000    
     72      5      1     34       109.4           109.4           0.000    
     73      4      1     35       109.4           109.4           0.000    
     74      5      1     35       109.4           109.4           0.000    
     75      4     36     35       109.2           109.2           0.000    
     76      5     36     35       109.2           109.2           0.000    
     77      4     35     34       109.2           109.2           0.000    
     78      5     35     34       109.2           109.2           0.000    
     79      4     36     34       109.2           109.2           0.000    
     80      5     36     34       109.2           109.2           0.000    
     81      4     36     33       109.2           109.2           0.000    
     82      5     36     33       109.2           109.2           0.000    
     83      4     36     32       109.2           109.2           0.000    
     84      5     36     32       109.2           109.2           0.000    
     85      4     37     32       109.2           109.2           0.000    
     86      5     37     32       109.2           109.2           0.000    
     87      4     37     31       109.2           109.2           0.000    
     88      5     37     31       109.2           109.2           0.000    
     89      4     38     31       109.2           109.2           0.000    
     90      5     38     31       109.2           109.2           0.000    
     91      4     38     30       109.2           109.2           0.000    
     92      5     38     30       109.2           109.2           0.000    
     93      4     39     30       109.2           109.2           0.000    
     94      5     39     30       109.2           109.2           0.000    
     95      4     39     29       109.2           109.2           0.000    
     96      5     39     29       109.2           109.2           0.000    
     97      4     40     29       109.2           109.2           0.000    
     98      5     40     29       109.2           109.2           0.000    
     99      4     40     28       109.2           109.2           0.000    
    100      5     40     28       109.2           109.2           0.000    
    101      4     40     27       109.2           109.2           0.000    
    102      5     40     27       109.2           109.2           0.000    
    103      4     41     27       109.2           109.2           0.000    
    104      5     41     27       109.2           109.2           0.000    
    105      4     41     26       109.2           109.2           0.000    
    106      5     41     26       109.2           109.2           0.000    
    107      4     41     25       109.2           109.2           0.000    
    108      5     41     25       109.2           109.2           0.000    
    109      4     41     24       109.2           109.2           0.000    
    110      5     41     24       109.2           109.2           0.000    
    111      4     41     23       109.2           109.2           0.000    
    112      5     41     23       109.2           109.2           0.000    
    113      4     41     22       109.2           109.2           0.000    
    114      5     41     22       109.2           109.2           0.000    
    115      4     42     22       109.2           109.2           0.000    
    116      5     42     22       109.2           109.2           0.000    
    117      4     42     21       109.2           109.2           0.000    
    118      5     42     21       109.2           109.2           0.000    
    119      4     42     20       109.2           109.2           0.000    
    120      5     42     20       109.2           109.2           0.000    
    121      4     42     19       109.2           109.2           0.000    
    122      5     42     19       109.2           109.2           0.000    
    123      4     43     18       109.2           109.2           0.000    
    124      5     43     18       109.2           109.2           0.000    
    125      4     42     18       109.2           109.2           0.000    
    126      5     42     18       109.2           109.2           0.000    
    127      4     42     17       109.2           109.2           0.000    
    128      5     42     17       109.2           109.2           0.000    
    129      4     42     16       109.2           109.2           0.000    
    130      5     42     16       109.2           109.2           0.000    
    131      4     42     15       109.2           109.2           0.000    
    132      5     42     15       109.2           109.2           0.000    
    133      4     43     15       109.2           109.2           0.000    
    134      5     43     15       109.2           109.2           0.000    
    135      4     43     14       109.2           109.2           0.000    
    136      5     43     14       109.2           109.2           0.000    
    137      4     43     13       109.2           109.2           0.000    
    138      5     43     13       109.2           109.2           0.000    
    139      4     43     12       109.2           109.2           0.000    
    140      5     43     12       109.2           109.2           0.000    
    141      4     43     11       109.2           109.2           0.000    
    142      5     43     11       109.2           109.2           0.000    
    143      4     43     10       109.2           109.2           0.000    
    144      5     43     10       109.2           109.2           0.000    
    145      4     44     10       109.2           109.2           0.000    
    146      5     44     10       109.2           109.2           0.000    
    147      4     44      9       109.2           109.2           0.000    
    148      5     44      9       109.2           109.2           0.000    
    149      4     44      8       109.2           109.2           0.000    
    150      5     44      8       109.2           109.2           0.000    
    151      4     44      7       109.2           109.2           0.000    
    152      5     44      7       109.2           109.2           0.000    
    153      4     44      6       109.2           109.2           0.000    
    154      5     44      6       109.2           109.2           0.000    
    155      4     44      5       109.2           109.2           0.000    
    156      5     44      5       109.2           109.2           0.000    
    157      4     44      4       109.2           109.2           0.000    
    158      5     44      4       109.2           109.2           0.000    
    159      4     44      3       109.2           109.2           0.000    
    160      5     44      3       109.2           109.2           0.000    
    161      4     45      3       109.2           109.2           0.000    
    162      5     45      3       109.2           109.2           0.000    
    163      4     45      2       109.2           109.2           0.000    
    164      5     45      2       109.2           109.2           0.000    
    165      4     45      1       109.2           109.2           0.000    
    166      5     45      1       109.2           109.2           0.000    


    166 TIME-VARIANT SPECIFIED-HEAD CELLS

 SOLVING FOR HEAD 


     4 CALLS TO PCG ROUTINE FOR TIME STEP   1 IN STRESS PERIOD   56
    45 TOTAL ITERATIONS

 MAXIMUM HEAD CHANGE FOR EACH ITERATION (1 INDICATES THE FIRST INNER ITERATION):

    HEAD CHANGE    HEAD CHANGE    HEAD CHANGE    HEAD CHANGE    HEAD CHANGE 
   LAYER,ROW,COL  LAYER,ROW,COL  LAYER,ROW,COL  LAYER,ROW,COL  LAYER,ROW,COL
 ---------------------------------------------------------------------------
  1 -0.1515E-01  0  0.6720E-02  0 -0.5857E-02  0 -0.5019E-02  0  0.3567E-02
   (  2,  4,  4)  (  5, 38,  1)  (  5, 34,  1)  (  5, 39,  1)  (  5, 36,  1)
  0 -0.2321E-02  0 -0.2050E-02  0  0.1236E-02  0 -0.1084E-02  0 -0.1157E-02
   (  5, 34,  2)  (  5, 22,  1)  (  5, 23,  3)  (  5, 34,  5)  (  5, 38,  1)
  0 -0.5253E-03  0  0.4924E-03  0 -0.4662E-03  0 -0.2244E-03  0 -0.1737E-03
   (  5, 21,  6)  (  5, 14,  1)  (  5, 14,  1)  (  5, 25, 10)  (  5, 32,  9)
  0 -0.1293E-03  0  0.1201E-03  0 -0.1051E-03  0 -0.7785E-04  0  0.6639E-04
   (  5, 25,  7)  (  5, 31,  2)  (  5, 33,  1)  (  5, 30, 10)  (  5, 33,  7)
  0 -0.3454E-04  0 -0.3458E-04  0 -0.2740E-04  0  0.1792E-04  0 -0.1323E-04
   (  5, 25,  8)  (  5, 24,  2)  (  5, 34,  1)  (  5, 34,  1)  (  5, 15,  2)
  0  0.1225E-04  0 -0.1103E-04  0  0.1127E-04  0 -0.5963E-05  0  0.3287E-05
   (  5, 38,  4)  (  5, 38,  1)  (  5, 40,  1)  (  5, 41,  1)  (  5, 37,  6)
  1 -0.7878E-05  0  0.9831E-05  0 -0.7033E-05  0 -0.7093E-05  0 -0.5708E-05
   (  5, 31,  2)  (  5, 33,  1)  (  5, 29,  8)  (  5, 15,  1)  (  5, 26,  2)
  0 -0.5016E-05  0 -0.3228E-05  0  0.2122E-05  0 -0.2095E-05  0  0.1719E-05
   (  5, 38,  2)  (  5, 21,  3)  (  5, 22,  3)  (  5, 38,  1)  (  5, 39,  2)
  0 -0.1453E-05  0  0.8871E-06  1 -0.1016E-05  0  0.6190E-06  1 -0.5694E-06
   (  5, 38,  1)  (  5, 39,  1)  (  5, 40,  1)  (  5, 39,  1)  (  5, 39,  2)

 MAXIMUM RESIDUAL FOR EACH ITERATION (1 INDICATES THE FIRST INNER ITERATION):

    RESIDUAL       RESIDUAL       RESIDUAL       RESIDUAL       RESIDUAL    
   LAYER,ROW,COL  LAYER,ROW,COL  LAYER,ROW,COL  LAYER,ROW,COL  LAYER,ROW,COL
 ---------------------------------------------------------------------------
  1  0.3597E-04  0 -0.3177E-04  0 -0.2788E-04  0 -0.2313E-04  0 -0.1878E-04
   (  3,  3,  1)  (  3,  4,  4)  (  3,  4,  4)  (  3,  4,  4)  (  3,  4,  3)
  0 -0.1501E-04  0 -0.1110E-04  0 -0.8848E-05  0 -0.7035E-05  0 -0.5650E-05
   (  3,  4,  3)  (  3,  4,  3)  (  3,  3,  9)  (  3,  3,  9)  (  3,  3,  9)
  0 -0.4519E-05  0 -0.3389E-05  0 -0.2597E-05  0 -0.1915E-05  0 -0.1442E-05
   (  3,  3,  9)  (  3,  3,  9)  (  3,  3,  9)  (  3,  3,  9)  (  3,  3,  7)
  0 -0.1161E-05  0 -0.9880E-06  0 -0.8232E-06  0 -0.5868E-06  0 -0.4017E-06
   (  3,  3,  7)  (  3,  3,  7)  (  3,  3,  7)  (  3,  3,  2)  (  3,  3,  2)
  0 -0.2771E-06  0 -0.2116E-06  0 -0.1750E-06  0 -0.1262E-06  0 -0.9402E-07
   (  3,  3,  2)  (  3,  3,  2)  (  3,  3,  2)  (  3,  3,  2)  (  3,  3,  2)
  0 -0.7464E-07  0  0.6141E-07  0  0.4826E-07  0  0.3584E-07  0  0.2631E-07
   (  3,  3,  2)  (  3,  3,  9)  (  3,  3,  9)  (  3,  3,  9)  (  3,  3,  9)
  1 -0.5833E-07  0 -0.4996E-07  0 -0.3872E-07  0 -0.3041E-07  0 -0.2354E-07
   (  2,  2, 26)  (  2,  2, 26)  (  2,  2, 26)  (  2,  2, 26)  (  2,  2, 26)
  0 -0.1876E-07  0 -0.1386E-07  0 -0.1141E-07  0 -0.9624E-08  0 -0.8045E-08
   (  2,  2, 26)  (  2,  2, 26)  (  2,  2, 26)  (  2,  2, 26)  (  2,  2, 26)
  0 -0.6344E-08  0 -0.4922E-08  1 -0.4674E-08  0 -0.4114E-08  1 -0.3951E-08
   (  2,  2, 26)  (  2,  2, 26)  (  2,  2, 26)  (  2,  2, 26)  (  2,  2, 26)



 OUTPUT CONTROL FOR STRESS PERIOD   56   TIME STEP    1
    SAVE HEAD FOR ALL LAYERS
    SAVE DRAWDOWN FOR ALL LAYERS
    SAVE BUDGET
    PRINT BUDGET
 UBDSV1 SAVING "         STORAGE" ON UNIT   9 AT TIME STEP  1, STRESS PERIOD  56
 UBDSV2 SAVING "   CONSTANT HEAD" ON UNIT   9 AT TIME STEP  1, STRESS PERIOD  56
 UBDSV1 SAVING "FLOW RIGHT FACE " ON UNIT   9 AT TIME STEP  1, STRESS PERIOD  56
 UBDSV1 SAVING "FLOW FRONT FACE " ON UNIT   9 AT TIME STEP  1, STRESS PERIOD  56
 UBDSV1 SAVING "FLOW LOWER FACE " ON UNIT   9 AT TIME STEP  1, STRESS PERIOD  56
 UBDSV3 SAVING "        RECHARGE" ON UNIT   9 AT TIME STEP  1, STRESS PERIOD  56

 HEAD WILL BE SAVED ON UNIT   37 AT END OF TIME STEP    1, STRESS PERIOD   56

 DRAWDOWN WILL BE SAVED ON UNIT   38 AT END OF TIME STEP    1, STRESS PERIOD   56
1
  VOLUMETRIC BUDGET FOR ENTIRE MODEL AT END OF TIME STEP    1, STRESS PERIOD  56
  ------------------------------------------------------------------------------

     CUMULATIVE VOLUMES      L**3       RATES FOR THIS TIME STEP      L**3/T
     ------------------                 ------------------------

           IN:                                      IN:
           ---                                      ---
             STORAGE =       10672.9131               STORAGE =       2.6227E-04
       CONSTANT HEAD =       15424.3545         CONSTANT HEAD =       1.7259E-03
            RECHARGE =         652.9713              RECHARGE =       1.0213E-04

            TOTAL IN =       26750.2383              TOTAL IN =       2.0903E-03

          OUT:                                     OUT:
          ----                                     ----
             STORAGE =        5182.7217               STORAGE =           0.0000
       CONSTANT HEAD =       21568.2402         CONSTANT HEAD =       2.0904E-03
            RECHARGE =           0.0000              RECHARGE =           0.0000

           TOTAL OUT =       26750.9609             TOTAL OUT =       2.0904E-03

            IN - OUT =          -0.7227              IN - OUT =      -1.0105E-07

 PERCENT DISCREPANCY =          -0.00     PERCENT DISCREPANCY =          -0.00






         TIME SUMMARY AT END OF TIME STEP    1 IN STRESS PERIOD   56
                    SECONDS     MINUTES      HOURS       DAYS        YEARS
                    -----------------------------------------------------------
   TIME STEP LENGTH  86400.      1440.0      24.000      1.0000     2.73785E-03
 STRESS PERIOD TIME  86400.      1440.0      24.000      1.0000     2.73785E-03
         TOTAL TIME 6.39360E+06 1.06560E+05  1776.0      74.000     0.20260    
1
1
                            STRESS PERIOD NO.   57, LENGTH =   86400.00    
                            -----------------------------------------------

                              NUMBER OF TIME STEPS =     1

                               MULTIPLIER FOR DELT =     1.000

                            INITIAL TIME STEP SIZE =   86400.00    

 REUSING RECH FROM LAST STRESS PERIOD

 CHD NO.   LAYER   ROW   COL    START HEAD        END HEAD         IFACE           
 ----------------------------------------------------------------------------------
      1      4      3      1       109.4           109.5           0.000    
      2      5      3      1       109.4           109.5           0.000    
      3      4      3      2       109.4           109.5           0.000    
      4      5      3      2       109.4           109.5           0.000    
      5      4      3      3       109.4           109.5           0.000    
      6      5      3      3       109.4           109.5           0.000    
      7      4      3      4       109.4           109.5           0.000    
      8      5      3      4       109.4           109.5           0.000    
      9      4      3      5       109.4           109.5           0.000    
     10      5      3      5       109.4           109.5           0.000    
     11      4      3      6       109.4           109.5           0.000    
     12      5      3      6       109.4           109.5           0.000    
     13      4      3      7       109.4           109.5           0.000    
     14      5      3      7       109.4           109.5           0.000    
     15      4      3      8       109.4           109.5           0.000    
     16      5      3      8       109.4           109.5           0.000    
     17      4      2      8       109.4           109.5           0.000    
     18      5      2      8       109.4           109.5           0.000    
     19      4      2      9       109.4           109.5           0.000    
     20      5      2      9       109.4           109.5           0.000    
     21      4      2     10       109.4           109.5           0.000    
     22      5      2     10       109.4           109.5           0.000    
     23      4      2     11       109.4           109.5           0.000    
     24      5      2     11       109.4           109.5           0.000    
     25      4      2     12       109.4           109.5           0.000    
     26      5      2     12       109.4           109.5           0.000    
     27      4      2     13       109.4           109.5           0.000    
     28      5      2     13       109.4           109.5           0.000    
     29      4      2     14       109.4           109.5           0.000    
     30      5      2     14       109.4           109.5           0.000    
     31      4      2     15       109.4           109.5           0.000    
     32      5      2     15       109.4           109.5           0.000    
     33      4      2     16       109.4           109.5           0.000    
     34      5      2     16       109.4           109.5           0.000    
     35      4      2     17       109.4           109.5           0.000    
     36      5      2     17       109.4           109.5           0.000    
     37      4      2     18       109.4           109.5           0.000    
     38      5      2     18       109.4           109.5           0.000    
     39      4      2     19       109.4           109.5           0.000    
     40      5      2     19       109.4           109.5           0.000    
     41      4      2     20       109.4           109.5           0.000    
     42      5      2     20       109.4           109.5           0.000    
     43      4      2     21       109.4           109.5           0.000    
     44      5      2     21       109.4           109.5           0.000    
     45      4      2     22       109.4           109.5           0.000    
     46      5      2     22       109.4           109.5           0.000    
     47      4      2     23       109.4           109.5           0.000    
     48      5      2     23       109.4           109.5           0.000    
     49      4      2     24       109.4           109.5           0.000    
     50      5      2     24       109.4           109.5           0.000    
     51      4      2     25       109.4           109.5           0.000    
     52      5      2     25       109.4           109.5           0.000    
     53      4      2     26       109.4           109.5           0.000    
     54      5      2     26       109.4           109.5           0.000    
     55      4      1     26       109.4           109.5           0.000    
     56      5      1     26       109.4           109.5           0.000    
     57      4      1     27       109.4           109.5           0.000    
     58      5      1     27       109.4           109.5           0.000    
     59      4      1     28       109.4           109.5           0.000    
     60      5      1     28       109.4           109.5           0.000    
     61      4      1     29       109.4           109.5           0.000    
     62      5      1     29       109.4           109.5           0.000    
     63      4      1     30       109.4           109.5           0.000    
     64      5      1     30       109.4           109.5           0.000    
     65      4      1     31       109.4           109.5           0.000    
     66      5      1     31       109.4           109.5           0.000    
     67      4      1     32       109.4           109.5           0.000    
     68      5      1     32       109.4           109.5           0.000    
     69      4      1     33       109.4           109.5           0.000    
     70      5      1     33       109.4           109.5           0.000    
     71      4      1     34       109.4           109.5           0.000    
     72      5      1     34       109.4           109.5           0.000    
     73      4      1     35       109.4           109.5           0.000    
     74      5      1     35       109.4           109.5           0.000    
     75      4     36     35       109.2           109.3           0.000    
     76      5     36     35       109.2           109.3           0.000    
     77      4     35     34       109.2           109.3           0.000    
     78      5     35     34       109.2           109.3           0.000    
     79      4     36     34       109.2           109.3           0.000    
     80      5     36     34       109.2           109.3           0.000    
     81      4     36     33       109.2           109.3           0.000    
     82      5     36     33       109.2           109.3           0.000    
     83      4     36     32       109.2           109.3           0.000    
     84      5     36     32       109.2           109.3           0.000    
     85      4     37     32       109.2           109.3           0.000    
     86      5     37     32       109.2           109.3           0.000    
     87      4     37     31       109.2           109.3           0.000    
     88      5     37     31       109.2           109.3           0.000    
     89      4     38     31       109.2           109.3           0.000    
     90      5     38     31       109.2           109.3           0.000    
     91      4     38     30       109.2           109.3           0.000    
     92      5     38     30       109.2           109.3           0.000    
     93      4     39     30       109.2           109.3           0.000    
     94      5     39     30       109.2           109.3           0.000    
     95      4     39     29       109.2           109.3           0.000    
     96      5     39     29       109.2           109.3           0.000    
     97      4     40     29       109.2           109.3           0.000    
     98      5     40     29       109.2           109.3           0.000    
     99      4     40     28       109.2           109.3           0.000    
    100      5     40     28       109.2           109.3           0.000    
    101      4     40     27       109.2           109.3           0.000    
    102      5     40     27       109.2           109.3           0.000    
    103      4     41     27       109.2           109.3           0.000    
    104      5     41     27       109.2           109.3           0.000    
    105      4     41     26       109.2           109.3           0.000    
    106      5     41     26       109.2           109.3           0.000    
    107      4     41     25       109.2           109.3           0.000    
    108      5     41     25       109.2           109.3           0.000    
    109      4     41     24       109.2           109.3           0.000    
    110      5     41     24       109.2           109.3           0.000    
    111      4     41     23       109.2           109.3           0.000    
    112      5     41     23       109.2           109.3           0.000    
    113      4     41     22       109.2           109.3           0.000    
    114      5     41     22       109.2           109.3           0.000    
    115      4     42     22       109.2           109.3           0.000    
    116      5     42     22       109.2           109.3           0.000    
    117      4     42     21       109.2           109.3           0.000    
    118      5     42     21       109.2           109.3           0.000    
    119      4     42     20       109.2           109.3           0.000    
    120      5     42     20       109.2           109.3           0.000    
    121      4     42     19       109.2           109.3           0.000    
    122      5     42     19       109.2           109.3           0.000    
    123      4     43     18       109.2           109.3           0.000    
    124      5     43     18       109.2           109.3           0.000    
    125      4     42     18       109.2           109.3           0.000    
    126      5     42     18       109.2           109.3           0.000    
    127      4     42     17       109.2           109.3           0.000    
    128      5     42     17       109.2           109.3           0.000    
    129      4     42     16       109.2           109.3           0.000    
    130      5     42     16       109.2           109.3           0.000    
    131      4     42     15       109.2           109.3           0.000    
    132      5     42     15       109.2           109.3           0.000    
    133      4     43     15       109.2           109.3           0.000    
    134      5     43     15       109.2           109.3           0.000    
    135      4     43     14       109.2           109.3           0.000    
    136      5     43     14       109.2           109.3           0.000    
    137      4     43     13       109.2           109.3           0.000    
    138      5     43     13       109.2           109.3           0.000    
    139      4     43     12       109.2           109.3           0.000    
    140      5     43     12       109.2           109.3           0.000    
    141      4     43     11       109.2           109.3           0.000    
    142      5     43     11       109.2           109.3           0.000    
    143      4     43     10       109.2           109.3           0.000    
    144      5     43     10       109.2           109.3           0.000    
    145      4     44     10       109.2           109.3           0.000    
    146      5     44     10       109.2           109.3           0.000    
    147      4     44      9       109.2           109.3           0.000    
    148      5     44      9       109.2           109.3           0.000    
    149      4     44      8       109.2           109.3           0.000    
    150      5     44      8       109.2           109.3           0.000    
    151      4     44      7       109.2           109.3           0.000    
    152      5     44      7       109.2           109.3           0.000    
    153      4     44      6       109.2           109.3           0.000    
    154      5     44      6       109.2           109.3           0.000    
    155      4     44      5       109.2           109.3           0.000    
    156      5     44      5       109.2           109.3           0.000    
    157      4     44      4       109.2           109.3           0.000    
    158      5     44      4       109.2           109.3           0.000    
    159      4     44      3       109.2           109.3           0.000    
    160      5     44      3       109.2           109.3           0.000    
    161      4     45      3       109.2           109.3           0.000    
    162      5     45      3       109.2           109.3           0.000    
    163      4     45      2       109.2           109.3           0.000    
    164      5     45      2       109.2           109.3           0.000    
    165      4     45      1       109.2           109.3           0.000    
    166      5     45      1       109.2           109.3           0.000    


    166 TIME-VARIANT SPECIFIED-HEAD CELLS

 SOLVING FOR HEAD 


     3 CALLS TO PCG ROUTINE FOR TIME STEP   1 IN STRESS PERIOD   57
    55 TOTAL ITERATIONS

 MAXIMUM HEAD CHANGE FOR EACH ITERATION (1 INDICATES THE FIRST INNER ITERATION):

    HEAD CHANGE    HEAD CHANGE    HEAD CHANGE    HEAD CHANGE    HEAD CHANGE 
   LAYER,ROW,COL  LAYER,ROW,COL  LAYER,ROW,COL  LAYER,ROW,COL  LAYER,ROW,COL
 ---------------------------------------------------------------------------
  1  0.2387      0 -0.1088      0 -0.8816E-01  0  0.1105      0 -0.7988E-01
   (  5, 43,  5)  (  5, 40,  1)  (  5, 42,  1)  (  5, 38,  1)  (  5, 35,  1)
  0  0.4931E-01  0  0.3228E-01  0 -0.2144E-01  0  0.2179E-01  0 -0.1723E-01
   (  5, 32,  2)  (  5, 41,  6)  (  5, 40,  1)  (  5, 37,  1)  (  5, 40,  5)
  0  0.1278E-01  0 -0.8619E-02  0  0.6544E-02  0  0.5580E-02  0 -0.4068E-02
   (  5, 39,  1)  (  5, 42,  1)  (  5, 40,  1)  (  5, 37,  8)  (  5, 35,  8)
  0  0.3141E-02  0 -0.1931E-02  0  0.1485E-02  0 -0.1297E-02  0  0.1019E-02
   (  5, 14,  1)  (  5, 13,  1)  (  5, 31,  1)  (  5, 34,  4)  (  5, 30,  9)
  0 -0.7259E-03  0 -0.5430E-03  0  0.4966E-03  0 -0.3440E-03  0 -0.2572E-03
   (  5, 28,  9)  (  5, 36,  3)  (  5, 35,  1)  (  5, 12,  1)  (  5, 39,  2)
  0  0.2356E-03  0 -0.1362E-03  0 -0.8980E-04  0  0.8906E-04  0  0.5895E-04
   (  5, 37,  1)  (  5, 38,  4)  (  5, 40,  1)  (  5, 35,  6)  (  5, 34,  1)
  1  0.1393E-03  0  0.2564E-03  0 -0.1456E-03  0  0.1843E-03  0 -0.1067E-03
   (  5, 37,  8)  (  5, 28,  1)  (  5, 34,  6)  (  5, 33,  1)  (  5, 35,  1)
  0  0.1134E-03  0  0.5888E-04  0  0.5644E-04  0 -0.4164E-04  0 -0.3183E-04
   (  5, 38,  2)  (  5, 20,  1)  (  5, 30,  1)  (  5, 36,  6)  (  5, 39,  4)
  0 -0.2803E-04  0  0.2269E-04  0  0.1864E-04  0 -0.1208E-04  0  0.8655E-05
   (  5, 33,  1)  (  5, 29, 10)  (  5, 34,  9)  (  5, 32,  9)  (  5, 29,  8)
  0  0.5081E-05  0 -0.4616E-05  0  0.4340E-05  0 -0.2722E-05  0  0.1914E-05
   (  5, 23, 12)  (  5, 32,  1)  (  5, 26,  1)  (  5, 12,  1)  (  5, 32, 12)
  0  0.1383E-05  0 -0.1358E-05  0  0.1173E-05  0 -0.7633E-06  1  0.7162E-06
   (  5, 36,  7)  (  5, 36,  1)  (  5, 40,  1)  (  5, 41,  2)  (  5, 39,  1)

 MAXIMUM RESIDUAL FOR EACH ITERATION (1 INDICATES THE FIRST INNER ITERATION):

    RESIDUAL       RESIDUAL       RESIDUAL       RESIDUAL       RESIDUAL    
   LAYER,ROW,COL  LAYER,ROW,COL  LAYER,ROW,COL  LAYER,ROW,COL  LAYER,ROW,COL
 ---------------------------------------------------------------------------
  1 -0.8013E-03  0 -0.6336E-03  0 -0.5161E-03  0 -0.4154E-03  0 -0.3529E-03
   (  4, 44,  2)  (  4, 35, 35)  (  4, 35, 35)  (  3, 40, 27)  (  3, 40, 27)
  0 -0.2862E-03  0 -0.2205E-03  0  0.1741E-03  0  0.1438E-03  0  0.1130E-03
   (  3, 40, 27)  (  3, 40, 27)  (  4, 43,  4)  (  4, 43,  4)  (  4, 43,  4)
  0  0.8471E-04  0  0.6256E-04  0  0.4704E-04  0  0.3612E-04  0  0.2709E-04
   (  4, 43,  4)  (  4, 43,  4)  (  4, 44,  2)  (  4, 44,  2)  (  4, 34, 35)
  0  0.2127E-04  0  0.1712E-04  0  0.1532E-04  0  0.1253E-04  0  0.9525E-05
   (  4, 34, 35)  (  4, 34, 35)  (  4, 34, 35)  (  4, 34, 35)  (  4, 34, 35)
  0  0.7480E-05  0  0.5873E-05  0  0.4979E-05  0  0.3539E-05  0  0.2664E-05
   (  4, 34, 35)  (  4, 34, 35)  (  4, 34, 35)  (  4, 34, 35)  (  4, 34, 35)
  0  0.2176E-05  0  0.1535E-05  0 -0.1093E-05  0 -0.7852E-06  0 -0.5613E-06
   (  4, 34, 35)  (  4, 34, 35)  (  4, 35, 35)  (  4, 35, 35)  (  4, 35, 35)
  1 -0.1923E-05  0 -0.1428E-05  0 -0.6956E-06  0 -0.4325E-06  0 -0.3825E-06
   (  3, 41,  4)  (  3, 41,  4)  (  3, 41,  4)  (  4, 43,  2)  (  4, 43,  2)
  0 -0.3561E-06  0 -0.3214E-06  0 -0.2884E-06  0 -0.2760E-06  0 -0.2450E-06
   (  4, 43,  2)  (  4, 43,  1)  (  4, 43,  1)  (  4, 44,  1)  (  4, 44,  1)
  0 -0.2114E-06  0 -0.1731E-06  0  0.1313E-06  0  0.9642E-07  0  0.6224E-07
   (  4, 44,  1)  (  4, 44,  1)  (  4, 43,  4)  (  4, 43,  4)  (  4, 43,  4)
  0  0.5652E-07  0  0.5430E-07  0  0.4792E-07  0  0.3878E-07  0  0.3023E-07
   (  4, 44,  2)  (  4, 44,  2)  (  4, 44,  2)  (  4, 44,  2)  (  4, 44,  2)
  0  0.2277E-07  0  0.1954E-07  0  0.1447E-07  0  0.1071E-07  1  0.9820E-08
   (  4, 44,  2)  (  4, 44,  2)  (  4, 44,  2)  (  4, 44,  2)  (  4, 44,  2)



 OUTPUT CONTROL FOR STRESS PERIOD   57   TIME STEP    1
    SAVE HEAD FOR ALL LAYERS
    SAVE DRAWDOWN FOR ALL LAYERS
    SAVE BUDGET
    PRINT BUDGET
 UBDSV1 SAVING "         STORAGE" ON UNIT   9 AT TIME STEP  1, STRESS PERIOD  57
 UBDSV2 SAVING "   CONSTANT HEAD" ON UNIT   9 AT TIME STEP  1, STRESS PERIOD  57
 UBDSV1 SAVING "FLOW RIGHT FACE " ON UNIT   9 AT TIME STEP  1, STRESS PERIOD  57
 UBDSV1 SAVING "FLOW FRONT FACE " ON UNIT   9 AT TIME STEP  1, STRESS PERIOD  57
 UBDSV1 SAVING "FLOW LOWER FACE " ON UNIT   9 AT TIME STEP  1, STRESS PERIOD  57
 UBDSV3 SAVING "        RECHARGE" ON UNIT   9 AT TIME STEP  1, STRESS PERIOD  57

 HEAD WILL BE SAVED ON UNIT   37 AT END OF TIME STEP    1, STRESS PERIOD   57

 DRAWDOWN WILL BE SAVED ON UNIT   38 AT END OF TIME STEP    1, STRESS PERIOD   57
1
  VOLUMETRIC BUDGET FOR ENTIRE MODEL AT END OF TIME STEP    1, STRESS PERIOD  57
  ------------------------------------------------------------------------------

     CUMULATIVE VOLUMES      L**3       RATES FOR THIS TIME STEP      L**3/T
     ------------------                 ------------------------

           IN:                                      IN:
           ---                                      ---
             STORAGE =       10672.9131               STORAGE =           0.0000
       CONSTANT HEAD =       15616.0234         CONSTANT HEAD =       2.2184E-03
            RECHARGE =         661.7952              RECHARGE =       1.0213E-04

            TOTAL IN =       26950.7324              TOTAL IN =       2.3205E-03

          OUT:                                     OUT:
          ----                                     ----
             STORAGE =        5343.9126               STORAGE =       1.8656E-03
       CONSTANT HEAD =       21607.5488         CONSTANT HEAD =       4.5497E-04
            RECHARGE =           0.0000              RECHARGE =           0.0000

           TOTAL OUT =       26951.4609             TOTAL OUT =       2.3206E-03

            IN - OUT =          -0.7285              IN - OUT =      -8.8708E-08

 PERCENT DISCREPANCY =          -0.00     PERCENT DISCREPANCY =          -0.00






         TIME SUMMARY AT END OF TIME STEP    1 IN STRESS PERIOD   57
                    SECONDS     MINUTES      HOURS       DAYS        YEARS
                    -----------------------------------------------------------
   TIME STEP LENGTH  86400.      1440.0      24.000      1.0000     2.73785E-03
 STRESS PERIOD TIME  86400.      1440.0      24.000      1.0000     2.73785E-03
         TOTAL TIME 6.48000E+06 1.08000E+05  1800.0      75.000     0.20534    
1
1
                            STRESS PERIOD NO.   58, LENGTH =   86400.00    
                            -----------------------------------------------

                              NUMBER OF TIME STEPS =     1

                               MULTIPLIER FOR DELT =     1.000

                            INITIAL TIME STEP SIZE =   86400.00    

 REUSING RECH FROM LAST STRESS PERIOD

 CHD NO.   LAYER   ROW   COL    START HEAD        END HEAD         IFACE           
 ----------------------------------------------------------------------------------
      1      4      3      1       109.5           109.4           0.000    
      2      5      3      1       109.5           109.4           0.000    
      3      4      3      2       109.5           109.4           0.000    
      4      5      3      2       109.5           109.4           0.000    
      5      4      3      3       109.5           109.4           0.000    
      6      5      3      3       109.5           109.4           0.000    
      7      4      3      4       109.5           109.4           0.000    
      8      5      3      4       109.5           109.4           0.000    
      9      4      3      5       109.5           109.4           0.000    
     10      5      3      5       109.5           109.4           0.000    
     11      4      3      6       109.5           109.4           0.000    
     12      5      3      6       109.5           109.4           0.000    
     13      4      3      7       109.5           109.4           0.000    
     14      5      3      7       109.5           109.4           0.000    
     15      4      3      8       109.5           109.4           0.000    
     16      5      3      8       109.5           109.4           0.000    
     17      4      2      8       109.5           109.4           0.000    
     18      5      2      8       109.5           109.4           0.000    
     19      4      2      9       109.5           109.4           0.000    
     20      5      2      9       109.5           109.4           0.000    
     21      4      2     10       109.5           109.4           0.000    
     22      5      2     10       109.5           109.4           0.000    
     23      4      2     11       109.5           109.4           0.000    
     24      5      2     11       109.5           109.4           0.000    
     25      4      2     12       109.5           109.4           0.000    
     26      5      2     12       109.5           109.4           0.000    
     27      4      2     13       109.5           109.4           0.000    
     28      5      2     13       109.5           109.4           0.000    
     29      4      2     14       109.5           109.4           0.000    
     30      5      2     14       109.5           109.4           0.000    
     31      4      2     15       109.5           109.4           0.000    
     32      5      2     15       109.5           109.4           0.000    
     33      4      2     16       109.5           109.4           0.000    
     34      5      2     16       109.5           109.4           0.000    
     35      4      2     17       109.5           109.4           0.000    
     36      5      2     17       109.5           109.4           0.000    
     37      4      2     18       109.5           109.4           0.000    
     38      5      2     18       109.5           109.4           0.000    
     39      4      2     19       109.5           109.4           0.000    
     40      5      2     19       109.5           109.4           0.000    
     41      4      2     20       109.5           109.4           0.000    
     42      5      2     20       109.5           109.4           0.000    
     43      4      2     21       109.5           109.4           0.000    
     44      5      2     21       109.5           109.4           0.000    
     45      4      2     22       109.5           109.4           0.000    
     46      5      2     22       109.5           109.4           0.000    
     47      4      2     23       109.5           109.4           0.000    
     48      5      2     23       109.5           109.4           0.000    
     49      4      2     24       109.5           109.4           0.000    
     50      5      2     24       109.5           109.4           0.000    
     51      4      2     25       109.5           109.4           0.000    
     52      5      2     25       109.5           109.4           0.000    
     53      4      2     26       109.5           109.4           0.000    
     54      5      2     26       109.5           109.4           0.000    
     55      4      1     26       109.5           109.4           0.000    
     56      5      1     26       109.5           109.4           0.000    
     57      4      1     27       109.5           109.4           0.000    
     58      5      1     27       109.5           109.4           0.000    
     59      4      1     28       109.5           109.4           0.000    
     60      5      1     28       109.5           109.4           0.000    
     61      4      1     29       109.5           109.4           0.000    
     62      5      1     29       109.5           109.4           0.000    
     63      4      1     30       109.5           109.4           0.000    
     64      5      1     30       109.5           109.4           0.000    
     65      4      1     31       109.5           109.4           0.000    
     66      5      1     31       109.5           109.4           0.000    
     67      4      1     32       109.5           109.4           0.000    
     68      5      1     32       109.5           109.4           0.000    
     69      4      1     33       109.5           109.4           0.000    
     70      5      1     33       109.5           109.4           0.000    
     71      4      1     34       109.5           109.4           0.000    
     72      5      1     34       109.5           109.4           0.000    
     73      4      1     35       109.5           109.4           0.000    
     74      5      1     35       109.5           109.4           0.000    
     75      4     36     35       109.3           109.3           0.000    
     76      5     36     35       109.3           109.3           0.000    
     77      4     35     34       109.3           109.3           0.000    
     78      5     35     34       109.3           109.3           0.000    
     79      4     36     34       109.3           109.3           0.000    
     80      5     36     34       109.3           109.3           0.000    
     81      4     36     33       109.3           109.3           0.000    
     82      5     36     33       109.3           109.3           0.000    
     83      4     36     32       109.3           109.3           0.000    
     84      5     36     32       109.3           109.3           0.000    
     85      4     37     32       109.3           109.3           0.000    
     86      5     37     32       109.3           109.3           0.000    
     87      4     37     31       109.3           109.3           0.000    
     88      5     37     31       109.3           109.3           0.000    
     89      4     38     31       109.3           109.3           0.000    
     90      5     38     31       109.3           109.3           0.000    
     91      4     38     30       109.3           109.3           0.000    
     92      5     38     30       109.3           109.3           0.000    
     93      4     39     30       109.3           109.3           0.000    
     94      5     39     30       109.3           109.3           0.000    
     95      4     39     29       109.3           109.3           0.000    
     96      5     39     29       109.3           109.3           0.000    
     97      4     40     29       109.3           109.3           0.000    
     98      5     40     29       109.3           109.3           0.000    
     99      4     40     28       109.3           109.3           0.000    
    100      5     40     28       109.3           109.3           0.000    
    101      4     40     27       109.3           109.3           0.000    
    102      5     40     27       109.3           109.3           0.000    
    103      4     41     27       109.3           109.3           0.000    
    104      5     41     27       109.3           109.3           0.000    
    105      4     41     26       109.3           109.3           0.000    
    106      5     41     26       109.3           109.3           0.000    
    107      4     41     25       109.3           109.3           0.000    
    108      5     41     25       109.3           109.3           0.000    
    109      4     41     24       109.3           109.3           0.000    
    110      5     41     24       109.3           109.3           0.000    
    111      4     41     23       109.3           109.3           0.000    
    112      5     41     23       109.3           109.3           0.000    
    113      4     41     22       109.3           109.3           0.000    
    114      5     41     22       109.3           109.3           0.000    
    115      4     42     22       109.3           109.3           0.000    
    116      5     42     22       109.3           109.3           0.000    
    117      4     42     21       109.3           109.3           0.000    
    118      5     42     21       109.3           109.3           0.000    
    119      4     42     20       109.3           109.3           0.000    
    120      5     42     20       109.3           109.3           0.000    
    121      4     42     19       109.3           109.3           0.000    
    122      5     42     19       109.3           109.3           0.000    
    123      4     43     18       109.3           109.3           0.000    
    124      5     43     18       109.3           109.3           0.000    
    125      4     42     18       109.3           109.3           0.000    
    126      5     42     18       109.3           109.3           0.000    
    127      4     42     17       109.3           109.3           0.000    
    128      5     42     17       109.3           109.3           0.000    
    129      4     42     16       109.3           109.3           0.000    
    130      5     42     16       109.3           109.3           0.000    
    131      4     42     15       109.3           109.3           0.000    
    132      5     42     15       109.3           109.3           0.000    
    133      4     43     15       109.3           109.3           0.000    
    134      5     43     15       109.3           109.3           0.000    
    135      4     43     14       109.3           109.3           0.000    
    136      5     43     14       109.3           109.3           0.000    
    137      4     43     13       109.3           109.3           0.000    
    138      5     43     13       109.3           109.3           0.000    
    139      4     43     12       109.3           109.3           0.000    
    140      5     43     12       109.3           109.3           0.000    
    141      4     43     11       109.3           109.3           0.000    
    142      5     43     11       109.3           109.3           0.000    
    143      4     43     10       109.3           109.3           0.000    
    144      5     43     10       109.3           109.3           0.000    
    145      4     44     10       109.3           109.3           0.000    
    146      5     44     10       109.3           109.3           0.000    
    147      4     44      9       109.3           109.3           0.000    
    148      5     44      9       109.3           109.3           0.000    
    149      4     44      8       109.3           109.3           0.000    
    150      5     44      8       109.3           109.3           0.000    
    151      4     44      7       109.3           109.3           0.000    
    152      5     44      7       109.3           109.3           0.000    
    153      4     44      6       109.3           109.3           0.000    
    154      5     44      6       109.3           109.3           0.000    
    155      4     44      5       109.3           109.3           0.000    
    156      5     44      5       109.3           109.3           0.000    
    157      4     44      4       109.3           109.3           0.000    
    158      5     44      4       109.3           109.3           0.000    
    159      4     44      3       109.3           109.3           0.000    
    160      5     44      3       109.3           109.3           0.000    
    161      4     45      3       109.3           109.3           0.000    
    162      5     45      3       109.3           109.3           0.000    
    163      4     45      2       109.3           109.3           0.000    
    164      5     45      2       109.3           109.3           0.000    
    165      4     45      1       109.3           109.3           0.000    
    166      5     45      1       109.3           109.3           0.000    


    166 TIME-VARIANT SPECIFIED-HEAD CELLS

 SOLVING FOR HEAD 


     3 CALLS TO PCG ROUTINE FOR TIME STEP   1 IN STRESS PERIOD   58
    48 TOTAL ITERATIONS

 MAXIMUM HEAD CHANGE FOR EACH ITERATION (1 INDICATES THE FIRST INNER ITERATION):

    HEAD CHANGE    HEAD CHANGE    HEAD CHANGE    HEAD CHANGE    HEAD CHANGE 
   LAYER,ROW,COL  LAYER,ROW,COL  LAYER,ROW,COL  LAYER,ROW,COL  LAYER,ROW,COL
 ---------------------------------------------------------------------------
  1 -0.7428E-01  0 -0.3408E-01  0  0.3815E-01  0 -0.4722E-01  0  0.2920E-01
   (  5, 43,  5)  (  5, 29,  1)  (  5, 41,  1)  (  5, 38,  1)  (  5, 35,  1)
  0 -0.1703E-01  0 -0.1144E-01  0 -0.7387E-02  0 -0.6857E-02  0  0.5943E-02
   (  5, 33,  2)  (  5, 41,  5)  (  5, 31,  5)  (  5, 36,  1)  (  5, 40,  5)
  0 -0.5021E-02  0  0.3181E-02  0  0.2886E-02  0 -0.1958E-02  0  0.1358E-02
   (  5, 39,  1)  (  5, 42,  1)  (  5, 36,  5)  (  5, 37,  8)  (  5, 14,  1)
  0  0.1293E-02  0 -0.7986E-03  0  0.8383E-03  0  0.6228E-03  0 -0.4564E-03
   (  5, 35,  7)  (  5, 30,  1)  (  5, 34,  1)  (  5, 40,  1)  (  5, 30,  9)
  0  0.2875E-03  0  0.2337E-03  0 -0.2153E-03  0  0.1275E-03  0 -0.1021E-03
   (  5, 13,  1)  (  5, 37,  1)  (  5, 35,  1)  (  5, 12,  1)  (  5, 14,  1)
  0 -0.5707E-04  0  0.5497E-04  0 -0.5585E-04  0  0.3471E-04  0 -0.2566E-04
   (  5, 41,  2)  (  5, 40,  2)  (  5, 38,  1)  (  5, 36,  1)  (  5, 30,  1)
  1  0.2336E-04  0  0.2132E-04  0 -0.2301E-04  0 -0.1364E-04  0  0.1349E-04
   (  5, 30,  1)  (  5, 34,  6)  (  5, 36,  7)  (  5, 20,  1)  (  5, 33,  7)
  0  0.1561E-04  0 -0.8378E-05  0  0.6149E-05  0  0.6826E-05  0 -0.5773E-05
   (  5, 36,  1)  (  5, 37,  1)  (  5, 34,  1)  (  5, 39,  1)  (  5, 37,  1)
  0  0.4266E-05  0  0.2473E-05  0 -0.2211E-05  0  0.1408E-05  0  0.1203E-05
   (  5, 30,  9)  (  5, 14,  1)  (  5, 39,  1)  (  5, 41,  1)  (  5, 32,  2)
  0 -0.1039E-05  0  0.6098E-06  1 -0.5007E-06
   (  5, 28,  1)  (  5, 25, 12)  (  5, 24, 11)

 MAXIMUM RESIDUAL FOR EACH ITERATION (1 INDICATES THE FIRST INNER ITERATION):

    RESIDUAL       RESIDUAL       RESIDUAL       RESIDUAL       RESIDUAL    
   LAYER,ROW,COL  LAYER,ROW,COL  LAYER,ROW,COL  LAYER,ROW,COL  LAYER,ROW,COL
 ---------------------------------------------------------------------------
  1  0.3706E-03  0  0.2802E-03  0  0.2034E-03  0  0.1642E-03  0  0.1394E-03
   (  4, 44,  2)  (  4, 44,  2)  (  3, 40, 27)  (  3, 40, 27)  (  3, 40, 27)
  0  0.1165E-03  0  0.9170E-04  0  0.7715E-04  0  0.6261E-04  0  0.4779E-04
   (  3, 40, 27)  (  3, 40, 27)  (  4, 35, 35)  (  4, 35, 35)  (  4, 35, 35)
  0  0.3328E-04  0 -0.2498E-04  0 -0.1873E-04  0 -0.1475E-04  0 -0.1160E-04
   (  4, 35, 35)  (  3, 35, 35)  (  3, 35, 35)  (  4, 34, 35)  (  4, 34, 35)
  0 -0.9155E-05  0 -0.8027E-05  0 -0.6721E-05  0 -0.5358E-05  0 -0.4199E-05
   (  4, 34, 35)  (  4, 34, 35)  (  4, 34, 35)  (  4, 34, 35)  (  4, 34, 35)
  0 -0.3403E-05  0 -0.2841E-05  0 -0.2329E-05  0 -0.1717E-05  0 -0.1252E-05
   (  4, 34, 35)  (  4, 34, 35)  (  4, 34, 35)  (  4, 34, 35)  (  4, 34, 35)
  0 -0.8944E-06  0 -0.7001E-06  0 -0.5397E-06  0 -0.3677E-06  0  0.3095E-06
   (  4, 34, 35)  (  4, 34, 35)  (  4, 34, 35)  (  4, 34, 35)  (  4, 35, 35)
  1  0.3036E-06  0 -0.2720E-06  0 -0.2195E-06  0 -0.1855E-06  0 -0.1353E-06
   (  4, 35, 35)  (  4, 34, 35)  (  4, 34, 35)  (  4, 34, 35)  (  4, 34, 35)
  0 -0.1125E-06  0  0.7890E-07  0 -0.5576E-07  0 -0.4304E-07  0 -0.3144E-07
   (  4, 34, 35)  (  4, 35, 35)  (  4, 34, 35)  (  4, 34, 35)  (  4, 34, 35)
  0  0.2305E-07  0  0.1716E-07  0  0.1361E-07  0  0.9072E-08  0  0.7912E-08
   (  4, 43,  2)  (  4, 43,  2)  (  4, 43,  2)  (  4, 35, 35)  (  4, 35, 35)
  0  0.6433E-08  0  0.5211E-08  1  0.4975E-08
   (  4, 35, 35)  (  4, 35, 35)  (  4, 35, 35)



 OUTPUT CONTROL FOR STRESS PERIOD   58   TIME STEP    1
    SAVE HEAD FOR ALL LAYERS
    SAVE DRAWDOWN FOR ALL LAYERS
    SAVE BUDGET
    PRINT BUDGET
 UBDSV1 SAVING "         STORAGE" ON UNIT   9 AT TIME STEP  1, STRESS PERIOD  58
 UBDSV2 SAVING "   CONSTANT HEAD" ON UNIT   9 AT TIME STEP  1, STRESS PERIOD  58
 UBDSV1 SAVING "FLOW RIGHT FACE " ON UNIT   9 AT TIME STEP  1, STRESS PERIOD  58
 UBDSV1 SAVING "FLOW FRONT FACE " ON UNIT   9 AT TIME STEP  1, STRESS PERIOD  58
 UBDSV1 SAVING "FLOW LOWER FACE " ON UNIT   9 AT TIME STEP  1, STRESS PERIOD  58
 UBDSV3 SAVING "        RECHARGE" ON UNIT   9 AT TIME STEP  1, STRESS PERIOD  58

 HEAD WILL BE SAVED ON UNIT   37 AT END OF TIME STEP    1, STRESS PERIOD   58

 DRAWDOWN WILL BE SAVED ON UNIT   38 AT END OF TIME STEP    1, STRESS PERIOD   58
1
  VOLUMETRIC BUDGET FOR ENTIRE MODEL AT END OF TIME STEP    1, STRESS PERIOD  58
  ------------------------------------------------------------------------------

     CUMULATIVE VOLUMES      L**3       RATES FOR THIS TIME STEP      L**3/T
     ------------------                 ------------------------

           IN:                                      IN:
           ---                                      ---
             STORAGE =       10691.0020               STORAGE =       2.0936E-04
       CONSTANT HEAD =       15757.4551         CONSTANT HEAD =       1.6369E-03
            RECHARGE =         670.6191              RECHARGE =       1.0213E-04

            TOTAL IN =       27119.0762              TOTAL IN =       1.9484E-03

          OUT:                                     OUT:
          ----                                     ----
             STORAGE =        5346.7354               STORAGE =       3.2672E-05
       CONSTANT HEAD =       21773.0820         CONSTANT HEAD =       1.9159E-03
            RECHARGE =           0.0000              RECHARGE =           0.0000

           TOTAL OUT =       27119.8164             TOTAL OUT =       1.9486E-03

            IN - OUT =          -0.7402              IN - OUT =      -1.1781E-07

 PERCENT DISCREPANCY =          -0.00     PERCENT DISCREPANCY =          -0.01






         TIME SUMMARY AT END OF TIME STEP    1 IN STRESS PERIOD   58
                    SECONDS     MINUTES      HOURS       DAYS        YEARS
                    -----------------------------------------------------------
   TIME STEP LENGTH  86400.      1440.0      24.000      1.0000     2.73785E-03
 STRESS PERIOD TIME  86400.      1440.0      24.000      1.0000     2.73785E-03
         TOTAL TIME 6.56640E+06 1.09440E+05  1824.0      76.000     0.20808    
1
1
                            STRESS PERIOD NO.   59, LENGTH =   86400.00    
                            -----------------------------------------------

                              NUMBER OF TIME STEPS =     1

                               MULTIPLIER FOR DELT =     1.000

                            INITIAL TIME STEP SIZE =   86400.00    

 REUSING RECH FROM LAST STRESS PERIOD

 CHD NO.   LAYER   ROW   COL    START HEAD        END HEAD         IFACE           
 ----------------------------------------------------------------------------------
      1      4      3      1       109.4           109.5           0.000    
      2      5      3      1       109.4           109.5           0.000    
      3      4      3      2       109.4           109.5           0.000    
      4      5      3      2       109.4           109.5           0.000    
      5      4      3      3       109.4           109.5           0.000    
      6      5      3      3       109.4           109.5           0.000    
      7      4      3      4       109.4           109.5           0.000    
      8      5      3      4       109.4           109.5           0.000    
      9      4      3      5       109.4           109.5           0.000    
     10      5      3      5       109.4           109.5           0.000    
     11      4      3      6       109.4           109.5           0.000    
     12      5      3      6       109.4           109.5           0.000    
     13      4      3      7       109.4           109.5           0.000    
     14      5      3      7       109.4           109.5           0.000    
     15      4      3      8       109.4           109.5           0.000    
     16      5      3      8       109.4           109.5           0.000    
     17      4      2      8       109.4           109.5           0.000    
     18      5      2      8       109.4           109.5           0.000    
     19      4      2      9       109.4           109.5           0.000    
     20      5      2      9       109.4           109.5           0.000    
     21      4      2     10       109.4           109.5           0.000    
     22      5      2     10       109.4           109.5           0.000    
     23      4      2     11       109.4           109.5           0.000    
     24      5      2     11       109.4           109.5           0.000    
     25      4      2     12       109.4           109.5           0.000    
     26      5      2     12       109.4           109.5           0.000    
     27      4      2     13       109.4           109.5           0.000    
     28      5      2     13       109.4           109.5           0.000    
     29      4      2     14       109.4           109.5           0.000    
     30      5      2     14       109.4           109.5           0.000    
     31      4      2     15       109.4           109.5           0.000    
     32      5      2     15       109.4           109.5           0.000    
     33      4      2     16       109.4           109.5           0.000    
     34      5      2     16       109.4           109.5           0.000    
     35      4      2     17       109.4           109.5           0.000    
     36      5      2     17       109.4           109.5           0.000    
     37      4      2     18       109.4           109.5           0.000    
     38      5      2     18       109.4           109.5           0.000    
     39      4      2     19       109.4           109.5           0.000    
     40      5      2     19       109.4           109.5           0.000    
     41      4      2     20       109.4           109.5           0.000    
     42      5      2     20       109.4           109.5           0.000    
     43      4      2     21       109.4           109.5           0.000    
     44      5      2     21       109.4           109.5           0.000    
     45      4      2     22       109.4           109.5           0.000    
     46      5      2     22       109.4           109.5           0.000    
     47      4      2     23       109.4           109.5           0.000    
     48      5      2     23       109.4           109.5           0.000    
     49      4      2     24       109.4           109.5           0.000    
     50      5      2     24       109.4           109.5           0.000    
     51      4      2     25       109.4           109.5           0.000    
     52      5      2     25       109.4           109.5           0.000    
     53      4      2     26       109.4           109.5           0.000    
     54      5      2     26       109.4           109.5           0.000    
     55      4      1     26       109.4           109.5           0.000    
     56      5      1     26       109.4           109.5           0.000    
     57      4      1     27       109.4           109.5           0.000    
     58      5      1     27       109.4           109.5           0.000    
     59      4      1     28       109.4           109.5           0.000    
     60      5      1     28       109.4           109.5           0.000    
     61      4      1     29       109.4           109.5           0.000    
     62      5      1     29       109.4           109.5           0.000    
     63      4      1     30       109.4           109.5           0.000    
     64      5      1     30       109.4           109.5           0.000    
     65      4      1     31       109.4           109.5           0.000    
     66      5      1     31       109.4           109.5           0.000    
     67      4      1     32       109.4           109.5           0.000    
     68      5      1     32       109.4           109.5           0.000    
     69      4      1     33       109.4           109.5           0.000    
     70      5      1     33       109.4           109.5           0.000    
     71      4      1     34       109.4           109.5           0.000    
     72      5      1     34       109.4           109.5           0.000    
     73      4      1     35       109.4           109.5           0.000    
     74      5      1     35       109.4           109.5           0.000    
     75      4     36     35       109.3           109.3           0.000    
     76      5     36     35       109.3           109.3           0.000    
     77      4     35     34       109.3           109.3           0.000    
     78      5     35     34       109.3           109.3           0.000    
     79      4     36     34       109.3           109.3           0.000    
     80      5     36     34       109.3           109.3           0.000    
     81      4     36     33       109.3           109.3           0.000    
     82      5     36     33       109.3           109.3           0.000    
     83      4     36     32       109.3           109.3           0.000    
     84      5     36     32       109.3           109.3           0.000    
     85      4     37     32       109.3           109.3           0.000    
     86      5     37     32       109.3           109.3           0.000    
     87      4     37     31       109.3           109.3           0.000    
     88      5     37     31       109.3           109.3           0.000    
     89      4     38     31       109.3           109.3           0.000    
     90      5     38     31       109.3           109.3           0.000    
     91      4     38     30       109.3           109.3           0.000    
     92      5     38     30       109.3           109.3           0.000    
     93      4     39     30       109.3           109.3           0.000    
     94      5     39     30       109.3           109.3           0.000    
     95      4     39     29       109.3           109.3           0.000    
     96      5     39     29       109.3           109.3           0.000    
     97      4     40     29       109.3           109.3           0.000    
     98      5     40     29       109.3           109.3           0.000    
     99      4     40     28       109.3           109.3           0.000    
    100      5     40     28       109.3           109.3           0.000    
    101      4     40     27       109.3           109.3           0.000    
    102      5     40     27       109.3           109.3           0.000    
    103      4     41     27       109.3           109.3           0.000    
    104      5     41     27       109.3           109.3           0.000    
    105      4     41     26       109.3           109.3           0.000    
    106      5     41     26       109.3           109.3           0.000    
    107      4     41     25       109.3           109.3           0.000    
    108      5     41     25       109.3           109.3           0.000    
    109      4     41     24       109.3           109.3           0.000    
    110      5     41     24       109.3           109.3           0.000    
    111      4     41     23       109.3           109.3           0.000    
    112      5     41     23       109.3           109.3           0.000    
    113      4     41     22       109.3           109.3           0.000    
    114      5     41     22       109.3           109.3           0.000    
    115      4     42     22       109.3           109.3           0.000    
    116      5     42     22       109.3           109.3           0.000    
    117      4     42     21       109.3           109.3           0.000    
    118      5     42     21       109.3           109.3           0.000    
    119      4     42     20       109.3           109.3           0.000    
    120      5     42     20       109.3           109.3           0.000    
    121      4     42     19       109.3           109.3           0.000    
    122      5     42     19       109.3           109.3           0.000    
    123      4     43     18       109.3           109.3           0.000    
    124      5     43     18       109.3           109.3           0.000    
    125      4     42     18       109.3           109.3           0.000    
    126      5     42     18       109.3           109.3           0.000    
    127      4     42     17       109.3           109.3           0.000    
    128      5     42     17       109.3           109.3           0.000    
    129      4     42     16       109.3           109.3           0.000    
    130      5     42     16       109.3           109.3           0.000    
    131      4     42     15       109.3           109.3           0.000    
    132      5     42     15       109.3           109.3           0.000    
    133      4     43     15       109.3           109.3           0.000    
    134      5     43     15       109.3           109.3           0.000    
    135      4     43     14       109.3           109.3           0.000    
    136      5     43     14       109.3           109.3           0.000    
    137      4     43     13       109.3           109.3           0.000    
    138      5     43     13       109.3           109.3           0.000    
    139      4     43     12       109.3           109.3           0.000    
    140      5     43     12       109.3           109.3           0.000    
    141      4     43     11       109.3           109.3           0.000    
    142      5     43     11       109.3           109.3           0.000    
    143      4     43     10       109.3           109.3           0.000    
    144      5     43     10       109.3           109.3           0.000    
    145      4     44     10       109.3           109.3           0.000    
    146      5     44     10       109.3           109.3           0.000    
    147      4     44      9       109.3           109.3           0.000    
    148      5     44      9       109.3           109.3           0.000    
    149      4     44      8       109.3           109.3           0.000    
    150      5     44      8       109.3           109.3           0.000    
    151      4     44      7       109.3           109.3           0.000    
    152      5     44      7       109.3           109.3           0.000    
    153      4     44      6       109.3           109.3           0.000    
    154      5     44      6       109.3           109.3           0.000    
    155      4     44      5       109.3           109.3           0.000    
    156      5     44      5       109.3           109.3           0.000    
    157      4     44      4       109.3           109.3           0.000    
    158      5     44      4       109.3           109.3           0.000    
    159      4     44      3       109.3           109.3           0.000    
    160      5     44      3       109.3           109.3           0.000    
    161      4     45      3       109.3           109.3           0.000    
    162      5     45      3       109.3           109.3           0.000    
    163      4     45      2       109.3           109.3           0.000    
    164      5     45      2       109.3           109.3           0.000    
    165      4     45      1       109.3           109.3           0.000    
    166      5     45      1       109.3           109.3           0.000    


    166 TIME-VARIANT SPECIFIED-HEAD CELLS

 SOLVING FOR HEAD 


     3 CALLS TO PCG ROUTINE FOR TIME STEP   1 IN STRESS PERIOD   59
    48 TOTAL ITERATIONS

 MAXIMUM HEAD CHANGE FOR EACH ITERATION (1 INDICATES THE FIRST INNER ITERATION):

    HEAD CHANGE    HEAD CHANGE    HEAD CHANGE    HEAD CHANGE    HEAD CHANGE 
   LAYER,ROW,COL  LAYER,ROW,COL  LAYER,ROW,COL  LAYER,ROW,COL  LAYER,ROW,COL
 ---------------------------------------------------------------------------
  1  0.3647E-01  0 -0.1725E-01  0 -0.1553E-01  0  0.2052E-01  0 -0.1510E-01
   (  5, 43,  5)  (  5, 40,  1)  (  5, 42,  1)  (  5, 38,  1)  (  5, 35,  1)
  0  0.8919E-02  0 -0.5723E-02  0  0.3724E-02  0 -0.3375E-02  0 -0.2663E-02
   (  5, 33,  2)  (  5, 39,  1)  (  5, 36,  1)  (  5, 39,  5)  (  5, 40,  5)
  0  0.2078E-02  0  0.1169E-02  0 -0.1102E-02  0  0.8268E-03  0 -0.6348E-03
   (  5, 37,  5)  (  5, 38,  4)  (  5, 36,  5)  (  5, 37,  8)  (  5, 14,  1)
  0 -0.4503E-03  0  0.3688E-03  0 -0.2518E-03  0  0.2261E-03  0  0.2191E-03
   (  5, 35,  7)  (  5, 26,  9)  (  5, 32,  3)  (  5, 33,  1)  (  5, 30,  9)
  0 -0.1421E-03  0  0.1088E-03  0 -0.7551E-04  0  0.5806E-04  0  0.4235E-04
   (  5, 13,  1)  (  5, 35,  1)  (  5, 36,  3)  (  5, 36,  1)  (  5, 14,  1)
  0 -0.3003E-04  0  0.3055E-04  0 -0.1694E-04  0  0.1742E-04  0 -0.1346E-04
   (  5, 39,  2)  (  5, 37,  1)  (  5, 40,  2)  (  5, 35,  6)  (  5, 33,  6)
  1  0.3727E-04  0  0.4797E-04  0  0.4869E-04  0  0.3002E-04  0  0.3499E-04
   (  5, 23,  6)  (  3, 21,  5)  (  5, 24,  1)  (  3, 21,  5)  (  5, 30,  1)
  0 -0.2034E-04  0  0.2161E-04  0 -0.1363E-04  0 -0.9819E-05  0  0.5317E-05
   (  5, 33,  1)  (  5, 37,  1)  (  5, 37,  1)  (  5, 34,  7)  (  5, 38,  9)
  0  0.5135E-05  0  0.4749E-05  0  0.4337E-05  0 -0.2877E-05  0  0.1784E-05
   (  5, 38,  1)  (  5, 29, 11)  (  5, 40,  1)  (  5, 29, 11)  (  5, 29,  2)
  0  0.1547E-05  0  0.8734E-06  1 -0.6951E-06
   (  5, 29,  9)  (  5, 25,  1)  (  5, 31,  1)

 MAXIMUM RESIDUAL FOR EACH ITERATION (1 INDICATES THE FIRST INNER ITERATION):

    RESIDUAL       RESIDUAL       RESIDUAL       RESIDUAL       RESIDUAL    
   LAYER,ROW,COL  LAYER,ROW,COL  LAYER,ROW,COL  LAYER,ROW,COL  LAYER,ROW,COL
 ---------------------------------------------------------------------------
  1 -0.9464E-04  0 -0.8084E-04  0 -0.6637E-04  0 -0.5282E-04  0  0.4530E-04
   (  3,  3,  1)  (  3,  3,  1)  (  3,  3,  1)  (  3,  3,  1)  (  4, 43,  6)
  0  0.3707E-04  0  0.2969E-04  0  0.2327E-04  0  0.1989E-04  0  0.1616E-04
   (  4, 43,  5)  (  4, 43,  4)  (  4, 43,  4)  (  4, 44,  2)  (  4, 44,  2)
  0  0.1242E-04  0  0.9530E-05  0  0.7023E-05  0  0.5044E-05  0  0.3604E-05
   (  4, 44,  2)  (  4, 44,  2)  (  4, 44,  2)  (  4, 44,  2)  (  4, 44,  2)
  0 -0.2570E-05  0 -0.1952E-05  0 -0.1648E-05  0 -0.1335E-05  0  0.1002E-05
   (  3,  3,  1)  (  3,  3,  1)  (  3,  3,  1)  (  3,  3,  1)  (  3,  3,  2)
  0  0.7628E-06  0  0.6013E-06  0  0.5155E-06  0  0.3857E-06  0  0.2941E-06
   (  3,  3,  2)  (  3,  3,  2)  (  3,  3,  2)  (  3,  3,  2)  (  3,  3,  2)
  0  0.2359E-06  0  0.1948E-06  0  0.1332E-06  0  0.9237E-07  0  0.6398E-07
   (  3,  3,  2)  (  3,  3,  2)  (  3,  3,  2)  (  3,  3,  2)  (  3,  3,  2)
  1 -0.2456E-06  0 -0.1964E-06  0 -0.1395E-06  0 -0.1007E-06  0  0.7837E-07
   (  3, 21,  6)  (  3, 21,  6)  (  3, 21,  6)  (  3, 21,  6)  (  2,  2, 26)
  0  0.6825E-07  0  0.5660E-07  0  0.4681E-07  0  0.3828E-07  0  0.2985E-07
   (  2,  2, 26)  (  2,  2, 26)  (  2,  2, 26)  (  2,  2, 26)  (  2,  2, 26)
  0  0.2400E-07  0  0.1787E-07  0 -0.1336E-07  0 -0.9887E-08  0  0.7356E-08
   (  2,  2, 26)  (  2,  2, 26)  (  4, 44,  1)  (  4, 44,  1)  (  4, 43,  4)
  0  0.6669E-08  0  0.6276E-08  1  0.6213E-08
   (  4, 44,  2)  (  4, 44,  2)  (  4, 44,  2)



 OUTPUT CONTROL FOR STRESS PERIOD   59   TIME STEP    1
    SAVE HEAD FOR ALL LAYERS
    SAVE DRAWDOWN FOR ALL LAYERS
    SAVE BUDGET
    PRINT BUDGET
 UBDSV1 SAVING "         STORAGE" ON UNIT   9 AT TIME STEP  1, STRESS PERIOD  59
 UBDSV2 SAVING "   CONSTANT HEAD" ON UNIT   9 AT TIME STEP  1, STRESS PERIOD  59
 UBDSV1 SAVING "FLOW RIGHT FACE " ON UNIT   9 AT TIME STEP  1, STRESS PERIOD  59
 UBDSV1 SAVING "FLOW FRONT FACE " ON UNIT   9 AT TIME STEP  1, STRESS PERIOD  59
 UBDSV1 SAVING "FLOW LOWER FACE " ON UNIT   9 AT TIME STEP  1, STRESS PERIOD  59
 UBDSV3 SAVING "        RECHARGE" ON UNIT   9 AT TIME STEP  1, STRESS PERIOD  59

 HEAD WILL BE SAVED ON UNIT   37 AT END OF TIME STEP    1, STRESS PERIOD   59

 DRAWDOWN WILL BE SAVED ON UNIT   38 AT END OF TIME STEP    1, STRESS PERIOD   59
1
  VOLUMETRIC BUDGET FOR ENTIRE MODEL AT END OF TIME STEP    1, STRESS PERIOD  59
  ------------------------------------------------------------------------------

     CUMULATIVE VOLUMES      L**3       RATES FOR THIS TIME STEP      L**3/T
     ------------------                 ------------------------

           IN:                                      IN:
           ---                                      ---
             STORAGE =       10691.0020               STORAGE =           0.0000
       CONSTANT HEAD =       15931.8672         CONSTANT HEAD =       2.0187E-03
            RECHARGE =         679.4430              RECHARGE =       1.0213E-04

            TOTAL IN =       27302.3125              TOTAL IN =       2.1208E-03

          OUT:                                     OUT:
          ----                                     ----
             STORAGE =        5383.4214               STORAGE =       4.2461E-04
       CONSTANT HEAD =       21919.6406         CONSTANT HEAD =       1.6963E-03
            RECHARGE =           0.0000              RECHARGE =           0.0000

           TOTAL OUT =       27303.0625             TOTAL OUT =       2.1209E-03

            IN - OUT =          -0.7500              IN - OUT =      -1.0268E-07

 PERCENT DISCREPANCY =          -0.00     PERCENT DISCREPANCY =          -0.00






         TIME SUMMARY AT END OF TIME STEP    1 IN STRESS PERIOD   59
                    SECONDS     MINUTES      HOURS       DAYS        YEARS
                    -----------------------------------------------------------
   TIME STEP LENGTH  86400.      1440.0      24.000      1.0000     2.73785E-03
 STRESS PERIOD TIME  86400.      1440.0      24.000      1.0000     2.73785E-03
         TOTAL TIME 6.65280E+06 1.10880E+05  1848.0      77.000     0.21081    
1
1
                            STRESS PERIOD NO.   60, LENGTH =   86400.00    
                            -----------------------------------------------

                              NUMBER OF TIME STEPS =     1

                               MULTIPLIER FOR DELT =     1.000

                            INITIAL TIME STEP SIZE =   86400.00    

 REUSING RECH FROM LAST STRESS PERIOD

 CHD NO.   LAYER   ROW   COL    START HEAD        END HEAD         IFACE           
 ----------------------------------------------------------------------------------
      1      4      3      1       109.5           109.5           0.000    
      2      5      3      1       109.5           109.5           0.000    
      3      4      3      2       109.5           109.5           0.000    
      4      5      3      2       109.5           109.5           0.000    
      5      4      3      3       109.5           109.5           0.000    
      6      5      3      3       109.5           109.5           0.000    
      7      4      3      4       109.5           109.5           0.000    
      8      5      3      4       109.5           109.5           0.000    
      9      4      3      5       109.5           109.5           0.000    
     10      5      3      5       109.5           109.5           0.000    
     11      4      3      6       109.5           109.5           0.000    
     12      5      3      6       109.5           109.5           0.000    
     13      4      3      7       109.5           109.5           0.000    
     14      5      3      7       109.5           109.5           0.000    
     15      4      3      8       109.5           109.5           0.000    
     16      5      3      8       109.5           109.5           0.000    
     17      4      2      8       109.5           109.5           0.000    
     18      5      2      8       109.5           109.5           0.000    
     19      4      2      9       109.5           109.5           0.000    
     20      5      2      9       109.5           109.5           0.000    
     21      4      2     10       109.5           109.5           0.000    
     22      5      2     10       109.5           109.5           0.000    
     23      4      2     11       109.5           109.5           0.000    
     24      5      2     11       109.5           109.5           0.000    
     25      4      2     12       109.5           109.5           0.000    
     26      5      2     12       109.5           109.5           0.000    
     27      4      2     13       109.5           109.5           0.000    
     28      5      2     13       109.5           109.5           0.000    
     29      4      2     14       109.5           109.5           0.000    
     30      5      2     14       109.5           109.5           0.000    
     31      4      2     15       109.5           109.5           0.000    
     32      5      2     15       109.5           109.5           0.000    
     33      4      2     16       109.5           109.5           0.000    
     34      5      2     16       109.5           109.5           0.000    
     35      4      2     17       109.5           109.5           0.000    
     36      5      2     17       109.5           109.5           0.000    
     37      4      2     18       109.5           109.5           0.000    
     38      5      2     18       109.5           109.5           0.000    
     39      4      2     19       109.5           109.5           0.000    
     40      5      2     19       109.5           109.5           0.000    
     41      4      2     20       109.5           109.5           0.000    
     42      5      2     20       109.5           109.5           0.000    
     43      4      2     21       109.5           109.5           0.000    
     44      5      2     21       109.5           109.5           0.000    
     45      4      2     22       109.5           109.5           0.000    
     46      5      2     22       109.5           109.5           0.000    
     47      4      2     23       109.5           109.5           0.000    
     48      5      2     23       109.5           109.5           0.000    
     49      4      2     24       109.5           109.5           0.000    
     50      5      2     24       109.5           109.5           0.000    
     51      4      2     25       109.5           109.5           0.000    
     52      5      2     25       109.5           109.5           0.000    
     53      4      2     26       109.5           109.5           0.000    
     54      5      2     26       109.5           109.5           0.000    
     55      4      1     26       109.5           109.5           0.000    
     56      5      1     26       109.5           109.5           0.000    
     57      4      1     27       109.5           109.5           0.000    
     58      5      1     27       109.5           109.5           0.000    
     59      4      1     28       109.5           109.5           0.000    
     60      5      1     28       109.5           109.5           0.000    
     61      4      1     29       109.5           109.5           0.000    
     62      5      1     29       109.5           109.5           0.000    
     63      4      1     30       109.5           109.5           0.000    
     64      5      1     30       109.5           109.5           0.000    
     65      4      1     31       109.5           109.5           0.000    
     66      5      1     31       109.5           109.5           0.000    
     67      4      1     32       109.5           109.5           0.000    
     68      5      1     32       109.5           109.5           0.000    
     69      4      1     33       109.5           109.5           0.000    
     70      5      1     33       109.5           109.5           0.000    
     71      4      1     34       109.5           109.5           0.000    
     72      5      1     34       109.5           109.5           0.000    
     73      4      1     35       109.5           109.5           0.000    
     74      5      1     35       109.5           109.5           0.000    
     75      4     36     35       109.3           109.3           0.000    
     76      5     36     35       109.3           109.3           0.000    
     77      4     35     34       109.3           109.3           0.000    
     78      5     35     34       109.3           109.3           0.000    
     79      4     36     34       109.3           109.3           0.000    
     80      5     36     34       109.3           109.3           0.000    
     81      4     36     33       109.3           109.3           0.000    
     82      5     36     33       109.3           109.3           0.000    
     83      4     36     32       109.3           109.3           0.000    
     84      5     36     32       109.3           109.3           0.000    
     85      4     37     32       109.3           109.3           0.000    
     86      5     37     32       109.3           109.3           0.000    
     87      4     37     31       109.3           109.3           0.000    
     88      5     37     31       109.3           109.3           0.000    
     89      4     38     31       109.3           109.3           0.000    
     90      5     38     31       109.3           109.3           0.000    
     91      4     38     30       109.3           109.3           0.000    
     92      5     38     30       109.3           109.3           0.000    
     93      4     39     30       109.3           109.3           0.000    
     94      5     39     30       109.3           109.3           0.000    
     95      4     39     29       109.3           109.3           0.000    
     96      5     39     29       109.3           109.3           0.000    
     97      4     40     29       109.3           109.3           0.000    
     98      5     40     29       109.3           109.3           0.000    
     99      4     40     28       109.3           109.3           0.000    
    100      5     40     28       109.3           109.3           0.000    
    101      4     40     27       109.3           109.3           0.000    
    102      5     40     27       109.3           109.3           0.000    
    103      4     41     27       109.3           109.3           0.000    
    104      5     41     27       109.3           109.3           0.000    
    105      4     41     26       109.3           109.3           0.000    
    106      5     41     26       109.3           109.3           0.000    
    107      4     41     25       109.3           109.3           0.000    
    108      5     41     25       109.3           109.3           0.000    
    109      4     41     24       109.3           109.3           0.000    
    110      5     41     24       109.3           109.3           0.000    
    111      4     41     23       109.3           109.3           0.000    
    112      5     41     23       109.3           109.3           0.000    
    113      4     41     22       109.3           109.3           0.000    
    114      5     41     22       109.3           109.3           0.000    
    115      4     42     22       109.3           109.3           0.000    
    116      5     42     22       109.3           109.3           0.000    
    117      4     42     21       109.3           109.3           0.000    
    118      5     42     21       109.3           109.3           0.000    
    119      4     42     20       109.3           109.3           0.000    
    120      5     42     20       109.3           109.3           0.000    
    121      4     42     19       109.3           109.3           0.000    
    122      5     42     19       109.3           109.3           0.000    
    123      4     43     18       109.3           109.3           0.000    
    124      5     43     18       109.3           109.3           0.000    
    125      4     42     18       109.3           109.3           0.000    
    126      5     42     18       109.3           109.3           0.000    
    127      4     42     17       109.3           109.3           0.000    
    128      5     42     17       109.3           109.3           0.000    
    129      4     42     16       109.3           109.3           0.000    
    130      5     42     16       109.3           109.3           0.000    
    131      4     42     15       109.3           109.3           0.000    
    132      5     42     15       109.3           109.3           0.000    
    133      4     43     15       109.3           109.3           0.000    
    134      5     43     15       109.3           109.3           0.000    
    135      4     43     14       109.3           109.3           0.000    
    136      5     43     14       109.3           109.3           0.000    
    137      4     43     13       109.3           109.3           0.000    
    138      5     43     13       109.3           109.3           0.000    
    139      4     43     12       109.3           109.3           0.000    
    140      5     43     12       109.3           109.3           0.000    
    141      4     43     11       109.3           109.3           0.000    
    142      5     43     11       109.3           109.3           0.000    
    143      4     43     10       109.3           109.3           0.000    
    144      5     43     10       109.3           109.3           0.000    
    145      4     44     10       109.3           109.3           0.000    
    146      5     44     10       109.3           109.3           0.000    
    147      4     44      9       109.3           109.3           0.000    
    148      5     44      9       109.3           109.3           0.000    
    149      4     44      8       109.3           109.3           0.000    
    150      5     44      8       109.3           109.3           0.000    
    151      4     44      7       109.3           109.3           0.000    
    152      5     44      7       109.3           109.3           0.000    
    153      4     44      6       109.3           109.3           0.000    
    154      5     44      6       109.3           109.3           0.000    
    155      4     44      5       109.3           109.3           0.000    
    156      5     44      5       109.3           109.3           0.000    
    157      4     44      4       109.3           109.3           0.000    
    158      5     44      4       109.3           109.3           0.000    
    159      4     44      3       109.3           109.3           0.000    
    160      5     44      3       109.3           109.3           0.000    
    161      4     45      3       109.3           109.3           0.000    
    162      5     45      3       109.3           109.3           0.000    
    163      4     45      2       109.3           109.3           0.000    
    164      5     45      2       109.3           109.3           0.000    
    165      4     45      1       109.3           109.3           0.000    
    166      5     45      1       109.3           109.3           0.000    


    166 TIME-VARIANT SPECIFIED-HEAD CELLS

 SOLVING FOR HEAD 


     3 CALLS TO PCG ROUTINE FOR TIME STEP   1 IN STRESS PERIOD   60
    53 TOTAL ITERATIONS

 MAXIMUM HEAD CHANGE FOR EACH ITERATION (1 INDICATES THE FIRST INNER ITERATION):

    HEAD CHANGE    HEAD CHANGE    HEAD CHANGE    HEAD CHANGE    HEAD CHANGE 
   LAYER,ROW,COL  LAYER,ROW,COL  LAYER,ROW,COL  LAYER,ROW,COL  LAYER,ROW,COL
 ---------------------------------------------------------------------------
  1  0.4341E-01  0 -0.2451E-01  0 -0.1505E-01  0  0.1563E-01  0 -0.1426E-01
   (  5, 43,  5)  (  5, 39,  1)  (  5, 42,  1)  (  5, 38,  1)  (  5, 35,  1)
  0  0.9985E-02  0 -0.7126E-02  0 -0.4322E-02  0 -0.4080E-02  0 -0.3303E-02
   (  5, 32,  2)  (  5, 38,  1)  (  5, 40,  1)  (  5, 38,  5)  (  5, 40,  5)
  0  0.2444E-02  0 -0.1527E-02  0  0.1136E-02  0  0.9226E-03  0  0.6803E-03
   (  5, 37,  5)  (  5, 42,  1)  (  5, 40,  1)  (  5, 37,  8)  (  5, 30,  9)
  0 -0.5513E-03  0  0.4682E-03  0 -0.2704E-03  0 -0.1811E-03  0  0.2120E-03
   (  5, 28, 10)  (  5, 33,  8)  (  5, 31,  9)  (  5, 26,  1)  (  5, 29,  8)
  0 -0.1522E-03  0  0.1300E-03  0  0.8950E-04  0  0.7212E-04  0  0.6199E-04
   (  5, 37,  1)  (  5, 34,  1)  (  5, 12,  1)  (  5, 36,  1)  (  5, 32,  6)
  0  0.4890E-04  0 -0.3216E-04  0  0.3047E-04  0  0.1785E-04  0 -0.1487E-04
   (  5, 37,  1)  (  5, 36,  7)  (  5, 34,  6)  (  5, 38,  1)  (  5, 37,  1)
  1  0.6447E-04  0  0.6856E-04  0  0.1108E-03  0  0.6053E-04  0  0.7470E-04
   (  5, 25,  4)  (  3, 23,  4)  (  5, 28,  1)  (  5, 21,  2)  (  5, 35,  1)
  0 -0.5262E-04  0  0.3425E-04  0  0.2187E-04  0  0.1845E-04  0  0.1764E-04
   (  5, 36,  1)  (  5, 37,  1)  (  5, 24,  1)  (  5, 25,  8)  (  5, 29,  6)
  0  0.1049E-04  0  0.1045E-04  0 -0.7864E-05  0  0.7612E-05  0 -0.4070E-05
   (  5, 33,  3)  (  5, 38,  1)  (  5, 39,  1)  (  5, 26,  4)  (  5, 30, 10)
  0  0.5347E-05  0 -0.3403E-05  0  0.2115E-05  0  0.1985E-05  0 -0.1312E-05
   (  5, 13,  2)  (  5, 41,  1)  (  5, 39,  1)  (  5, 34,  3)  (  5, 31,  1)
  0 -0.1141E-05  0  0.7352E-06  1 -0.7338E-06
   (  5, 13,  1)  (  5, 13,  1)  (  5, 14,  1)

 MAXIMUM RESIDUAL FOR EACH ITERATION (1 INDICATES THE FIRST INNER ITERATION):

    RESIDUAL       RESIDUAL       RESIDUAL       RESIDUAL       RESIDUAL    
   LAYER,ROW,COL  LAYER,ROW,COL  LAYER,ROW,COL  LAYER,ROW,COL  LAYER,ROW,COL
 ---------------------------------------------------------------------------
  1 -0.8977E-04  0 -0.7511E-04  0 -0.6230E-04  0  0.5479E-04  0  0.5117E-04
   (  3,  3,  1)  (  3,  3,  1)  (  3,  3,  1)  (  4, 43,  6)  (  4, 43,  6)
  0  0.4411E-04  0  0.3660E-04  0  0.3045E-04  0  0.2377E-04  0  0.1898E-04
   (  4, 43,  5)  (  4, 43,  4)  (  4, 43,  4)  (  4, 43,  4)  (  4, 44,  2)
  0  0.1554E-04  0  0.1230E-04  0  0.9373E-05  0  0.7175E-05  0  0.5287E-05
   (  4, 44,  2)  (  4, 44,  2)  (  4, 44,  2)  (  4, 44,  2)  (  4, 44,  2)
  0  0.3915E-05  0  0.2678E-05  0  0.1921E-05  0  0.1636E-05  0  0.1210E-05
   (  4, 44,  2)  (  4, 44,  2)  (  4, 44,  2)  (  4, 44,  2)  (  4, 34, 35)
  0  0.9358E-06  0  0.8243E-06  0  0.5727E-06  0  0.3672E-06  0 -0.2835E-06
   (  4, 34, 35)  (  4, 34, 35)  (  4, 34, 35)  (  4, 34, 35)  (  4, 35, 35)
  0 -0.2435E-06  0 -0.1891E-06  0 -0.1387E-06  0  0.1048E-06  0  0.8483E-07
   (  4, 35, 35)  (  4, 35, 35)  (  4, 35, 35)  (  3,  3,  2)  (  3,  3,  2)
  1 -0.3613E-06  0 -0.3137E-06  0 -0.2396E-06  0 -0.2018E-06  0 -0.1405E-06
   (  3, 23,  5)  (  3, 23,  5)  (  3, 23,  1)  (  3, 23,  1)  (  4, 26,  1)
  0 -0.1038E-06  0 -0.7335E-07  0 -0.8018E-07  0 -0.7054E-07  0 -0.5867E-07
   (  4, 27,  1)  (  4, 36,  1)  (  4, 22,  3)  (  4, 22,  3)  (  4, 22,  2)
  0 -0.5004E-07  0 -0.4809E-07  0 -0.3288E-07  0 -0.2915E-07  0 -0.2241E-07
   (  4, 22,  2)  (  4, 22,  2)  (  4, 23,  2)  (  4, 23,  2)  (  4, 44,  1)
  0 -0.1574E-07  0  0.1520E-07  0  0.1323E-07  0  0.1153E-07  0  0.1037E-07
   (  4, 44,  1)  (  4, 44,  2)  (  4, 44,  2)  (  4, 44,  2)  (  4, 44,  2)
  0  0.7943E-08  0  0.5443E-08  1  0.4998E-08
   (  4, 44,  2)  (  4, 44,  2)  (  4, 44,  2)



 OUTPUT CONTROL FOR STRESS PERIOD   60   TIME STEP    1
    SAVE HEAD FOR ALL LAYERS
    SAVE DRAWDOWN FOR ALL LAYERS
    SAVE BUDGET
    PRINT BUDGET
 UBDSV1 SAVING "         STORAGE" ON UNIT   9 AT TIME STEP  1, STRESS PERIOD  60
 UBDSV2 SAVING "   CONSTANT HEAD" ON UNIT   9 AT TIME STEP  1, STRESS PERIOD  60
 UBDSV1 SAVING "FLOW RIGHT FACE " ON UNIT   9 AT TIME STEP  1, STRESS PERIOD  60
 UBDSV1 SAVING "FLOW FRONT FACE " ON UNIT   9 AT TIME STEP  1, STRESS PERIOD  60
 UBDSV1 SAVING "FLOW LOWER FACE " ON UNIT   9 AT TIME STEP  1, STRESS PERIOD  60
 UBDSV3 SAVING "        RECHARGE" ON UNIT   9 AT TIME STEP  1, STRESS PERIOD  60

 HEAD WILL BE SAVED ON UNIT   37 AT END OF TIME STEP    1, STRESS PERIOD   60

 DRAWDOWN WILL BE SAVED ON UNIT   38 AT END OF TIME STEP    1, STRESS PERIOD   60
1
  VOLUMETRIC BUDGET FOR ENTIRE MODEL AT END OF TIME STEP    1, STRESS PERIOD  60
  ------------------------------------------------------------------------------

     CUMULATIVE VOLUMES      L**3       RATES FOR THIS TIME STEP      L**3/T
     ------------------                 ------------------------

           IN:                                      IN:
           ---                                      ---
             STORAGE =       10691.0020               STORAGE =           0.0000
       CONSTANT HEAD =       16112.4658         CONSTANT HEAD =       2.0903E-03
            RECHARGE =         688.2669              RECHARGE =       1.0213E-04

            TOTAL IN =       27491.7363              TOTAL IN =       2.1924E-03

          OUT:                                     OUT:
          ----                                     ----
             STORAGE =        5428.5771               STORAGE =       5.2263E-04
       CONSTANT HEAD =       22063.9141         CONSTANT HEAD =       1.6698E-03
            RECHARGE =           0.0000              RECHARGE =           0.0000

           TOTAL OUT =       27492.4922             TOTAL OUT =       2.1925E-03

            IN - OUT =          -0.7559              IN - OUT =      -8.1025E-08

 PERCENT DISCREPANCY =          -0.00     PERCENT DISCREPANCY =          -0.00






         TIME SUMMARY AT END OF TIME STEP    1 IN STRESS PERIOD   60
                    SECONDS     MINUTES      HOURS       DAYS        YEARS
                    -----------------------------------------------------------
   TIME STEP LENGTH  86400.      1440.0      24.000      1.0000     2.73785E-03
 STRESS PERIOD TIME  86400.      1440.0      24.000      1.0000     2.73785E-03
         TOTAL TIME 6.73920E+06 1.12320E+05  1872.0      78.000     0.21355    
1
1
                            STRESS PERIOD NO.   61, LENGTH =   86400.00    
                            -----------------------------------------------

                              NUMBER OF TIME STEPS =     1

                               MULTIPLIER FOR DELT =     1.000

                            INITIAL TIME STEP SIZE =   86400.00    

 REUSING RECH FROM LAST STRESS PERIOD

 CHD NO.   LAYER   ROW   COL    START HEAD        END HEAD         IFACE           
 ----------------------------------------------------------------------------------
      1      4      3      1       109.5           109.5           0.000    
      2      5      3      1       109.5           109.5           0.000    
      3      4      3      2       109.5           109.5           0.000    
      4      5      3      2       109.5           109.5           0.000    
      5      4      3      3       109.5           109.5           0.000    
      6      5      3      3       109.5           109.5           0.000    
      7      4      3      4       109.5           109.5           0.000    
      8      5      3      4       109.5           109.5           0.000    
      9      4      3      5       109.5           109.5           0.000    
     10      5      3      5       109.5           109.5           0.000    
     11      4      3      6       109.5           109.5           0.000    
     12      5      3      6       109.5           109.5           0.000    
     13      4      3      7       109.5           109.5           0.000    
     14      5      3      7       109.5           109.5           0.000    
     15      4      3      8       109.5           109.5           0.000    
     16      5      3      8       109.5           109.5           0.000    
     17      4      2      8       109.5           109.5           0.000    
     18      5      2      8       109.5           109.5           0.000    
     19      4      2      9       109.5           109.5           0.000    
     20      5      2      9       109.5           109.5           0.000    
     21      4      2     10       109.5           109.5           0.000    
     22      5      2     10       109.5           109.5           0.000    
     23      4      2     11       109.5           109.5           0.000    
     24      5      2     11       109.5           109.5           0.000    
     25      4      2     12       109.5           109.5           0.000    
     26      5      2     12       109.5           109.5           0.000    
     27      4      2     13       109.5           109.5           0.000    
     28      5      2     13       109.5           109.5           0.000    
     29      4      2     14       109.5           109.5           0.000    
     30      5      2     14       109.5           109.5           0.000    
     31      4      2     15       109.5           109.5           0.000    
     32      5      2     15       109.5           109.5           0.000    
     33      4      2     16       109.5           109.5           0.000    
     34      5      2     16       109.5           109.5           0.000    
     35      4      2     17       109.5           109.5           0.000    
     36      5      2     17       109.5           109.5           0.000    
     37      4      2     18       109.5           109.5           0.000    
     38      5      2     18       109.5           109.5           0.000    
     39      4      2     19       109.5           109.5           0.000    
     40      5      2     19       109.5           109.5           0.000    
     41      4      2     20       109.5           109.5           0.000    
     42      5      2     20       109.5           109.5           0.000    
     43      4      2     21       109.5           109.5           0.000    
     44      5      2     21       109.5           109.5           0.000    
     45      4      2     22       109.5           109.5           0.000    
     46      5      2     22       109.5           109.5           0.000    
     47      4      2     23       109.5           109.5           0.000    
     48      5      2     23       109.5           109.5           0.000    
     49      4      2     24       109.5           109.5           0.000    
     50      5      2     24       109.5           109.5           0.000    
     51      4      2     25       109.5           109.5           0.000    
     52      5      2     25       109.5           109.5           0.000    
     53      4      2     26       109.5           109.5           0.000    
     54      5      2     26       109.5           109.5           0.000    
     55      4      1     26       109.5           109.5           0.000    
     56      5      1     26       109.5           109.5           0.000    
     57      4      1     27       109.5           109.5           0.000    
     58      5      1     27       109.5           109.5           0.000    
     59      4      1     28       109.5           109.5           0.000    
     60      5      1     28       109.5           109.5           0.000    
     61      4      1     29       109.5           109.5           0.000    
     62      5      1     29       109.5           109.5           0.000    
     63      4      1     30       109.5           109.5           0.000    
     64      5      1     30       109.5           109.5           0.000    
     65      4      1     31       109.5           109.5           0.000    
     66      5      1     31       109.5           109.5           0.000    
     67      4      1     32       109.5           109.5           0.000    
     68      5      1     32       109.5           109.5           0.000    
     69      4      1     33       109.5           109.5           0.000    
     70      5      1     33       109.5           109.5           0.000    
     71      4      1     34       109.5           109.5           0.000    
     72      5      1     34       109.5           109.5           0.000    
     73      4      1     35       109.5           109.5           0.000    
     74      5      1     35       109.5           109.5           0.000    
     75      4     36     35       109.3           109.3           0.000    
     76      5     36     35       109.3           109.3           0.000    
     77      4     35     34       109.3           109.3           0.000    
     78      5     35     34       109.3           109.3           0.000    
     79      4     36     34       109.3           109.3           0.000    
     80      5     36     34       109.3           109.3           0.000    
     81      4     36     33       109.3           109.3           0.000    
     82      5     36     33       109.3           109.3           0.000    
     83      4     36     32       109.3           109.3           0.000    
     84      5     36     32       109.3           109.3           0.000    
     85      4     37     32       109.3           109.3           0.000    
     86      5     37     32       109.3           109.3           0.000    
     87      4     37     31       109.3           109.3           0.000    
     88      5     37     31       109.3           109.3           0.000    
     89      4     38     31       109.3           109.3           0.000    
     90      5     38     31       109.3           109.3           0.000    
     91      4     38     30       109.3           109.3           0.000    
     92      5     38     30       109.3           109.3           0.000    
     93      4     39     30       109.3           109.3           0.000    
     94      5     39     30       109.3           109.3           0.000    
     95      4     39     29       109.3           109.3           0.000    
     96      5     39     29       109.3           109.3           0.000    
     97      4     40     29       109.3           109.3           0.000    
     98      5     40     29       109.3           109.3           0.000    
     99      4     40     28       109.3           109.3           0.000    
    100      5     40     28       109.3           109.3           0.000    
    101      4     40     27       109.3           109.3           0.000    
    102      5     40     27       109.3           109.3           0.000    
    103      4     41     27       109.3           109.3           0.000    
    104      5     41     27       109.3           109.3           0.000    
    105      4     41     26       109.3           109.3           0.000    
    106      5     41     26       109.3           109.3           0.000    
    107      4     41     25       109.3           109.3           0.000    
    108      5     41     25       109.3           109.3           0.000    
    109      4     41     24       109.3           109.3           0.000    
    110      5     41     24       109.3           109.3           0.000    
    111      4     41     23       109.3           109.3           0.000    
    112      5     41     23       109.3           109.3           0.000    
    113      4     41     22       109.3           109.3           0.000    
    114      5     41     22       109.3           109.3           0.000    
    115      4     42     22       109.3           109.3           0.000    
    116      5     42     22       109.3           109.3           0.000    
    117      4     42     21       109.3           109.3           0.000    
    118      5     42     21       109.3           109.3           0.000    
    119      4     42     20       109.3           109.3           0.000    
    120      5     42     20       109.3           109.3           0.000    
    121      4     42     19       109.3           109.3           0.000    
    122      5     42     19       109.3           109.3           0.000    
    123      4     43     18       109.3           109.3           0.000    
    124      5     43     18       109.3           109.3           0.000    
    125      4     42     18       109.3           109.3           0.000    
    126      5     42     18       109.3           109.3           0.000    
    127      4     42     17       109.3           109.3           0.000    
    128      5     42     17       109.3           109.3           0.000    
    129      4     42     16       109.3           109.3           0.000    
    130      5     42     16       109.3           109.3           0.000    
    131      4     42     15       109.3           109.3           0.000    
    132      5     42     15       109.3           109.3           0.000    
    133      4     43     15       109.3           109.3           0.000    
    134      5     43     15       109.3           109.3           0.000    
    135      4     43     14       109.3           109.3           0.000    
    136      5     43     14       109.3           109.3           0.000    
    137      4     43     13       109.3           109.3           0.000    
    138      5     43     13       109.3           109.3           0.000    
    139      4     43     12       109.3           109.3           0.000    
    140      5     43     12       109.3           109.3           0.000    
    141      4     43     11       109.3           109.3           0.000    
    142      5     43     11       109.3           109.3           0.000    
    143      4     43     10       109.3           109.3           0.000    
    144      5     43     10       109.3           109.3           0.000    
    145      4     44     10       109.3           109.3           0.000    
    146      5     44     10       109.3           109.3           0.000    
    147      4     44      9       109.3           109.3           0.000    
    148      5     44      9       109.3           109.3           0.000    
    149      4     44      8       109.3           109.3           0.000    
    150      5     44      8       109.3           109.3           0.000    
    151      4     44      7       109.3           109.3           0.000    
    152      5     44      7       109.3           109.3           0.000    
    153      4     44      6       109.3           109.3           0.000    
    154      5     44      6       109.3           109.3           0.000    
    155      4     44      5       109.3           109.3           0.000    
    156      5     44      5       109.3           109.3           0.000    
    157      4     44      4       109.3           109.3           0.000    
    158      5     44      4       109.3           109.3           0.000    
    159      4     44      3       109.3           109.3           0.000    
    160      5     44      3       109.3           109.3           0.000    
    161      4     45      3       109.3           109.3           0.000    
    162      5     45      3       109.3           109.3           0.000    
    163      4     45      2       109.3           109.3           0.000    
    164      5     45      2       109.3           109.3           0.000    
    165      4     45      1       109.3           109.3           0.000    
    166      5     45      1       109.3           109.3           0.000    


    166 TIME-VARIANT SPECIFIED-HEAD CELLS

 SOLVING FOR HEAD 


     3 CALLS TO PCG ROUTINE FOR TIME STEP   1 IN STRESS PERIOD   61
    50 TOTAL ITERATIONS

 MAXIMUM HEAD CHANGE FOR EACH ITERATION (1 INDICATES THE FIRST INNER ITERATION):

    HEAD CHANGE    HEAD CHANGE    HEAD CHANGE    HEAD CHANGE    HEAD CHANGE 
   LAYER,ROW,COL  LAYER,ROW,COL  LAYER,ROW,COL  LAYER,ROW,COL  LAYER,ROW,COL
 ---------------------------------------------------------------------------
  1 -0.5762E-01  0 -0.2098E-01  0  0.2837E-01  0 -0.3003E-01  0  0.2113E-01
   (  5, 43,  5)  (  5, 25,  2)  (  5, 41,  1)  (  5, 37,  1)  (  5, 35,  1)
  0 -0.1034E-01  0  0.1273E-01  0 -0.8030E-02  0  0.5638E-02  0 -0.4440E-02
   (  5, 33,  2)  (  5, 38,  1)  (  5, 36,  1)  (  5, 39,  5)  (  5, 33,  3)
  0  0.3609E-02  0 -0.2955E-02  0  0.1835E-02  0 -0.1371E-02  0 -0.1228E-02
   (  5, 34,  1)  (  5, 38,  5)  (  5, 36,  5)  (  5, 36,  8)  (  5, 27,  2)
  0  0.9642E-03  0  0.7592E-03  0 -0.8151E-03  0  0.5371E-03  0 -0.3741E-03
   (  5, 24,  3)  (  5, 35,  8)  (  5, 33,  9)  (  5, 31,  9)  (  5, 29,  9)
  0 -0.2587E-03  0  0.1983E-03  0  0.1360E-03  0 -0.1621E-03  0  0.8300E-04
   (  5, 15,  1)  (  5, 14,  1)  (  5, 38,  1)  (  5, 35,  1)  (  5, 13,  1)
  0 -0.6174E-04  0 -0.4872E-04  0 -0.3640E-04  0  0.3738E-04  0 -0.3896E-04
   (  5, 27,  1)  (  5, 15,  1)  (  5, 24,  5)  (  5, 12,  2)  (  5, 38,  1)
  1  0.3421E-04  0 -0.1814E-04  0  0.4150E-04  0  0.2870E-04  0  0.2034E-04
   (  5, 37,  1)  (  5, 27,  1)  (  5, 30,  1)  (  5, 37,  1)  (  5, 30,  1)
  0 -0.1445E-04  0  0.1592E-04  0 -0.1693E-04  0  0.9155E-05  0  0.7371E-05
   (  5, 31,  1)  (  5, 39,  2)  (  5, 36,  1)  (  5, 33,  1)  (  5, 15,  1)
  0 -0.4232E-05  0  0.4481E-05  0 -0.3935E-05  0 -0.2957E-05  0  0.1583E-05
   (  5, 14,  1)  (  5, 30, 10)  (  5, 39,  1)  (  5, 30, 10)  (  5, 15,  1)
  0  0.1422E-05  0 -0.1029E-05  0  0.1024E-05  0  0.6884E-06  1 -0.5287E-06
   (  5, 24,  1)  (  5, 29,  1)  (  5, 40,  2)  (  5, 34,  2)  (  5, 33,  1)

 MAXIMUM RESIDUAL FOR EACH ITERATION (1 INDICATES THE FIRST INNER ITERATION):

    RESIDUAL       RESIDUAL       RESIDUAL       RESIDUAL       RESIDUAL    
   LAYER,ROW,COL  LAYER,ROW,COL  LAYER,ROW,COL  LAYER,ROW,COL  LAYER,ROW,COL
 ---------------------------------------------------------------------------
  1  0.1512E-03  0  0.1304E-03  0  0.1082E-03  0  0.8260E-04  0 -0.7652E-04
   (  3,  3,  1)  (  3,  3,  1)  (  3,  3,  1)  (  3,  3,  1)  (  4, 43,  6)
  0 -0.6716E-04  0 -0.5693E-04  0 -0.4570E-04  0 -0.3793E-04  0 -0.3238E-04
   (  4, 43,  6)  (  4, 43,  5)  (  4, 43,  4)  (  4, 43,  4)  (  4, 43,  4)
  0 -0.2582E-04  0 -0.2083E-04  0 -0.1590E-04  0 -0.1243E-04  0 -0.1022E-04
   (  4, 44,  2)  (  4, 44,  2)  (  4, 44,  2)  (  4, 44,  2)  (  4, 44,  2)
  0 -0.8584E-05  0 -0.6514E-05  0 -0.4414E-05  0 -0.3057E-05  0 -0.2400E-05
   (  4, 44,  2)  (  4, 44,  2)  (  4, 44,  2)  (  4, 44,  2)  (  4, 34, 35)
  0 -0.1854E-05  0 -0.1402E-05  0 -0.1121E-05  0 -0.9240E-06  0 -0.6855E-06
   (  4, 34, 35)  (  4, 34, 35)  (  4, 34, 35)  (  4, 34, 35)  (  4, 34, 35)
  0 -0.6090E-06  0 -0.4486E-06  0 -0.3910E-06  0  0.2795E-06  0  0.2267E-06
   (  4, 34, 35)  (  4, 34, 35)  (  4, 34, 35)  (  4, 35, 35)  (  4, 35, 35)
  1 -0.3568E-06  0 -0.3218E-06  0 -0.2602E-06  0 -0.1824E-06  0 -0.1301E-06
   (  3, 38,  4)  (  3, 38,  4)  (  3, 38,  4)  (  3, 38,  4)  (  3, 38,  4)
  0 -0.9908E-07  0 -0.6292E-07  0  0.5450E-07  0  0.4610E-07  0  0.3733E-07
   (  3, 38,  4)  (  3, 38,  4)  (  3,  3,  1)  (  3,  3,  1)  (  3,  3,  1)
  0  0.2954E-07  0  0.2387E-07  0  0.1898E-07  0  0.1434E-07  0  0.1012E-07
   (  3,  3,  1)  (  3,  3,  1)  (  3,  3,  1)  (  4, 43,  2)  (  4, 43,  2)
  0  0.8308E-08  0  0.7126E-08  0  0.5707E-08  0  0.4386E-08  1  0.4167E-08
   (  4, 43,  2)  (  3,  3,  1)  (  3,  3,  1)  (  3,  3,  1)  (  3,  3,  1)



 OUTPUT CONTROL FOR STRESS PERIOD   61   TIME STEP    1
    SAVE HEAD FOR ALL LAYERS
    SAVE DRAWDOWN FOR ALL LAYERS
    SAVE BUDGET
    PRINT BUDGET
 UBDSV1 SAVING "         STORAGE" ON UNIT   9 AT TIME STEP  1, STRESS PERIOD  61
 UBDSV2 SAVING "   CONSTANT HEAD" ON UNIT   9 AT TIME STEP  1, STRESS PERIOD  61
 UBDSV1 SAVING "FLOW RIGHT FACE " ON UNIT   9 AT TIME STEP  1, STRESS PERIOD  61
 UBDSV1 SAVING "FLOW FRONT FACE " ON UNIT   9 AT TIME STEP  1, STRESS PERIOD  61
 UBDSV1 SAVING "FLOW LOWER FACE " ON UNIT   9 AT TIME STEP  1, STRESS PERIOD  61
 UBDSV3 SAVING "        RECHARGE" ON UNIT   9 AT TIME STEP  1, STRESS PERIOD  61

 HEAD WILL BE SAVED ON UNIT   37 AT END OF TIME STEP    1, STRESS PERIOD   61

 DRAWDOWN WILL BE SAVED ON UNIT   38 AT END OF TIME STEP    1, STRESS PERIOD   61
1
  VOLUMETRIC BUDGET FOR ENTIRE MODEL AT END OF TIME STEP    1, STRESS PERIOD  61
  ------------------------------------------------------------------------------

     CUMULATIVE VOLUMES      L**3       RATES FOR THIS TIME STEP      L**3/T
     ------------------                 ------------------------

           IN:                                      IN:
           ---                                      ---
             STORAGE =       10729.5762               STORAGE =       4.4646E-04
       CONSTANT HEAD =       16250.0742         CONSTANT HEAD =       1.5927E-03
            RECHARGE =         697.0908              RECHARGE =       1.0213E-04

            TOTAL IN =       27676.7422              TOTAL IN =       2.1413E-03

          OUT:                                     OUT:
          ----                                     ----
             STORAGE =        5428.5771               STORAGE =           0.0000
       CONSTANT HEAD =       22248.9277         CONSTANT HEAD =       2.1414E-03
            RECHARGE =           0.0000              RECHARGE =           0.0000

           TOTAL OUT =       27677.5039             TOTAL OUT =       2.1414E-03

            IN - OUT =          -0.7617              IN - OUT =      -8.6380E-08

 PERCENT DISCREPANCY =          -0.00     PERCENT DISCREPANCY =          -0.00






         TIME SUMMARY AT END OF TIME STEP    1 IN STRESS PERIOD   61
                    SECONDS     MINUTES      HOURS       DAYS        YEARS
                    -----------------------------------------------------------
   TIME STEP LENGTH  86400.      1440.0      24.000      1.0000     2.73785E-03
 STRESS PERIOD TIME  86400.      1440.0      24.000      1.0000     2.73785E-03
         TOTAL TIME 6.82560E+06 1.13760E+05  1896.0      79.000     0.21629    
1
1
                            STRESS PERIOD NO.   62, LENGTH =   86400.00    
                            -----------------------------------------------

                              NUMBER OF TIME STEPS =     1

                               MULTIPLIER FOR DELT =     1.000

                            INITIAL TIME STEP SIZE =   86400.00    

 REUSING RECH FROM LAST STRESS PERIOD

 CHD NO.   LAYER   ROW   COL    START HEAD        END HEAD         IFACE           
 ----------------------------------------------------------------------------------
      1      4      3      1       109.5           109.4           0.000    
      2      5      3      1       109.5           109.4           0.000    
      3      4      3      2       109.5           109.4           0.000    
      4      5      3      2       109.5           109.4           0.000    
      5      4      3      3       109.5           109.4           0.000    
      6      5      3      3       109.5           109.4           0.000    
      7      4      3      4       109.5           109.4           0.000    
      8      5      3      4       109.5           109.4           0.000    
      9      4      3      5       109.5           109.4           0.000    
     10      5      3      5       109.5           109.4           0.000    
     11      4      3      6       109.5           109.4           0.000    
     12      5      3      6       109.5           109.4           0.000    
     13      4      3      7       109.5           109.4           0.000    
     14      5      3      7       109.5           109.4           0.000    
     15      4      3      8       109.5           109.4           0.000    
     16      5      3      8       109.5           109.4           0.000    
     17      4      2      8       109.5           109.4           0.000    
     18      5      2      8       109.5           109.4           0.000    
     19      4      2      9       109.5           109.4           0.000    
     20      5      2      9       109.5           109.4           0.000    
     21      4      2     10       109.5           109.4           0.000    
     22      5      2     10       109.5           109.4           0.000    
     23      4      2     11       109.5           109.4           0.000    
     24      5      2     11       109.5           109.4           0.000    
     25      4      2     12       109.5           109.4           0.000    
     26      5      2     12       109.5           109.4           0.000    
     27      4      2     13       109.5           109.4           0.000    
     28      5      2     13       109.5           109.4           0.000    
     29      4      2     14       109.5           109.4           0.000    
     30      5      2     14       109.5           109.4           0.000    
     31      4      2     15       109.5           109.4           0.000    
     32      5      2     15       109.5           109.4           0.000    
     33      4      2     16       109.5           109.4           0.000    
     34      5      2     16       109.5           109.4           0.000    
     35      4      2     17       109.5           109.4           0.000    
     36      5      2     17       109.5           109.4           0.000    
     37      4      2     18       109.5           109.4           0.000    
     38      5      2     18       109.5           109.4           0.000    
     39      4      2     19       109.5           109.4           0.000    
     40      5      2     19       109.5           109.4           0.000    
     41      4      2     20       109.5           109.4           0.000    
     42      5      2     20       109.5           109.4           0.000    
     43      4      2     21       109.5           109.4           0.000    
     44      5      2     21       109.5           109.4           0.000    
     45      4      2     22       109.5           109.4           0.000    
     46      5      2     22       109.5           109.4           0.000    
     47      4      2     23       109.5           109.4           0.000    
     48      5      2     23       109.5           109.4           0.000    
     49      4      2     24       109.5           109.4           0.000    
     50      5      2     24       109.5           109.4           0.000    
     51      4      2     25       109.5           109.4           0.000    
     52      5      2     25       109.5           109.4           0.000    
     53      4      2     26       109.5           109.4           0.000    
     54      5      2     26       109.5           109.4           0.000    
     55      4      1     26       109.5           109.4           0.000    
     56      5      1     26       109.5           109.4           0.000    
     57      4      1     27       109.5           109.4           0.000    
     58      5      1     27       109.5           109.4           0.000    
     59      4      1     28       109.5           109.4           0.000    
     60      5      1     28       109.5           109.4           0.000    
     61      4      1     29       109.5           109.4           0.000    
     62      5      1     29       109.5           109.4           0.000    
     63      4      1     30       109.5           109.4           0.000    
     64      5      1     30       109.5           109.4           0.000    
     65      4      1     31       109.5           109.4           0.000    
     66      5      1     31       109.5           109.4           0.000    
     67      4      1     32       109.5           109.4           0.000    
     68      5      1     32       109.5           109.4           0.000    
     69      4      1     33       109.5           109.4           0.000    
     70      5      1     33       109.5           109.4           0.000    
     71      4      1     34       109.5           109.4           0.000    
     72      5      1     34       109.5           109.4           0.000    
     73      4      1     35       109.5           109.4           0.000    
     74      5      1     35       109.5           109.4           0.000    
     75      4     36     35       109.3           109.2           0.000    
     76      5     36     35       109.3           109.2           0.000    
     77      4     35     34       109.3           109.2           0.000    
     78      5     35     34       109.3           109.2           0.000    
     79      4     36     34       109.3           109.2           0.000    
     80      5     36     34       109.3           109.2           0.000    
     81      4     36     33       109.3           109.2           0.000    
     82      5     36     33       109.3           109.2           0.000    
     83      4     36     32       109.3           109.2           0.000    
     84      5     36     32       109.3           109.2           0.000    
     85      4     37     32       109.3           109.2           0.000    
     86      5     37     32       109.3           109.2           0.000    
     87      4     37     31       109.3           109.2           0.000    
     88      5     37     31       109.3           109.2           0.000    
     89      4     38     31       109.3           109.2           0.000    
     90      5     38     31       109.3           109.2           0.000    
     91      4     38     30       109.3           109.2           0.000    
     92      5     38     30       109.3           109.2           0.000    
     93      4     39     30       109.3           109.2           0.000    
     94      5     39     30       109.3           109.2           0.000    
     95      4     39     29       109.3           109.2           0.000    
     96      5     39     29       109.3           109.2           0.000    
     97      4     40     29       109.3           109.2           0.000    
     98      5     40     29       109.3           109.2           0.000    
     99      4     40     28       109.3           109.2           0.000    
    100      5     40     28       109.3           109.2           0.000    
    101      4     40     27       109.3           109.2           0.000    
    102      5     40     27       109.3           109.2           0.000    
    103      4     41     27       109.3           109.2           0.000    
    104      5     41     27       109.3           109.2           0.000    
    105      4     41     26       109.3           109.2           0.000    
    106      5     41     26       109.3           109.2           0.000    
    107      4     41     25       109.3           109.2           0.000    
    108      5     41     25       109.3           109.2           0.000    
    109      4     41     24       109.3           109.2           0.000    
    110      5     41     24       109.3           109.2           0.000    
    111      4     41     23       109.3           109.2           0.000    
    112      5     41     23       109.3           109.2           0.000    
    113      4     41     22       109.3           109.2           0.000    
    114      5     41     22       109.3           109.2           0.000    
    115      4     42     22       109.3           109.2           0.000    
    116      5     42     22       109.3           109.2           0.000    
    117      4     42     21       109.3           109.2           0.000    
    118      5     42     21       109.3           109.2           0.000    
    119      4     42     20       109.3           109.2           0.000    
    120      5     42     20       109.3           109.2           0.000    
    121      4     42     19       109.3           109.2           0.000    
    122      5     42     19       109.3           109.2           0.000    
    123      4     43     18       109.3           109.2           0.000    
    124      5     43     18       109.3           109.2           0.000    
    125      4     42     18       109.3           109.2           0.000    
    126      5     42     18       109.3           109.2           0.000    
    127      4     42     17       109.3           109.2           0.000    
    128      5     42     17       109.3           109.2           0.000    
    129      4     42     16       109.3           109.2           0.000    
    130      5     42     16       109.3           109.2           0.000    
    131      4     42     15       109.3           109.2           0.000    
    132      5     42     15       109.3           109.2           0.000    
    133      4     43     15       109.3           109.2           0.000    
    134      5     43     15       109.3           109.2           0.000    
    135      4     43     14       109.3           109.2           0.000    
    136      5     43     14       109.3           109.2           0.000    
    137      4     43     13       109.3           109.2           0.000    
    138      5     43     13       109.3           109.2           0.000    
    139      4     43     12       109.3           109.2           0.000    
    140      5     43     12       109.3           109.2           0.000    
    141      4     43     11       109.3           109.2           0.000    
    142      5     43     11       109.3           109.2           0.000    
    143      4     43     10       109.3           109.2           0.000    
    144      5     43     10       109.3           109.2           0.000    
    145      4     44     10       109.3           109.2           0.000    
    146      5     44     10       109.3           109.2           0.000    
    147      4     44      9       109.3           109.2           0.000    
    148      5     44      9       109.3           109.2           0.000    
    149      4     44      8       109.3           109.2           0.000    
    150      5     44      8       109.3           109.2           0.000    
    151      4     44      7       109.3           109.2           0.000    
    152      5     44      7       109.3           109.2           0.000    
    153      4     44      6       109.3           109.2           0.000    
    154      5     44      6       109.3           109.2           0.000    
    155      4     44      5       109.3           109.2           0.000    
    156      5     44      5       109.3           109.2           0.000    
    157      4     44      4       109.3           109.2           0.000    
    158      5     44      4       109.3           109.2           0.000    
    159      4     44      3       109.3           109.2           0.000    
    160      5     44      3       109.3           109.2           0.000    
    161      4     45      3       109.3           109.2           0.000    
    162      5     45      3       109.3           109.2           0.000    
    163      4     45      2       109.3           109.2           0.000    
    164      5     45      2       109.3           109.2           0.000    
    165      4     45      1       109.3           109.2           0.000    
    166      5     45      1       109.3           109.2           0.000    


    166 TIME-VARIANT SPECIFIED-HEAD CELLS

 SOLVING FOR HEAD 


     3 CALLS TO PCG ROUTINE FOR TIME STEP   1 IN STRESS PERIOD   62
    56 TOTAL ITERATIONS

 MAXIMUM HEAD CHANGE FOR EACH ITERATION (1 INDICATES THE FIRST INNER ITERATION):

    HEAD CHANGE    HEAD CHANGE    HEAD CHANGE    HEAD CHANGE    HEAD CHANGE 
   LAYER,ROW,COL  LAYER,ROW,COL  LAYER,ROW,COL  LAYER,ROW,COL  LAYER,ROW,COL
 ---------------------------------------------------------------------------
  1 -0.1684      0  0.6972E-01  0  0.5986E-01  0 -0.7661E-01  0  0.5627E-01
   (  5, 43,  5)  (  5, 39,  1)  (  5, 41,  1)  (  5, 37,  1)  (  5, 34,  1)
  0 -0.3553E-01  0  0.2543E-01  0  0.1789E-01  0 -0.1631E-01  0  0.1297E-01
   (  5, 32,  2)  (  5, 38,  1)  (  5, 39,  1)  (  5, 36,  1)  (  5, 40,  5)
  0 -0.9104E-02  0  0.6501E-02  0 -0.4952E-02  0 -0.3987E-02  0 -0.3023E-02
   (  5, 38,  1)  (  5, 42,  1)  (  5, 40,  1)  (  5, 36,  8)  (  5, 30,  9)
  0  0.2452E-02  0  0.1475E-02  0 -0.1356E-02  0  0.1393E-02  0 -0.9442E-03
   (  5, 35,  8)  (  5, 26,  2)  (  5, 32,  7)  (  5, 31,  8)  (  5, 13,  1)
  0 -0.6905E-03  0  0.4681E-03  0 -0.4340E-03  0 -0.3763E-03  0  0.1958E-03
   (  5, 38,  4)  (  5, 37,  1)  (  5, 40,  2)  (  5, 36,  1)  (  5, 38,  1)
  0 -0.1911E-03  0  0.1798E-03  0 -0.1462E-03  0 -0.7102E-04  0  0.5746E-04
   (  5, 36,  1)  (  5, 36,  7)  (  5, 34,  6)  (  5, 38,  1)  (  5, 37,  1)
  1  0.3213E-03  0  0.2658E-03  0  0.4343E-03  0  0.2117E-03  0  0.3067E-03
   (  5, 25,  7)  (  3, 22,  5)  (  5, 26,  1)  (  5, 20,  2)  (  5, 33,  1)
  0 -0.1415E-03  0  0.1745E-03  0 -0.1280E-03  0 -0.8823E-04  0  0.7339E-04
   (  5, 34,  1)  (  5, 39,  2)  (  5, 38,  1)  (  5, 15,  1)  (  5, 14,  1)
  0  0.3619E-04  0  0.3448E-04  0 -0.2631E-04  0 -0.2133E-04  0  0.1563E-04
   (  5, 22,  1)  (  5, 40,  1)  (  5, 39,  1)  (  5, 31, 10)  (  5, 13,  2)
  0  0.1264E-04  0 -0.7406E-05  0  0.7463E-05  0  0.4805E-05  0 -0.3640E-05
   (  5, 34,  1)  (  5, 30,  1)  (  5, 40,  1)  (  5, 13,  2)  (  5, 12,  1)
  0 -0.3338E-05  0  0.2636E-05  0 -0.1559E-05  0 -0.1089E-05  0 -0.6854E-06
   (  5, 35,  1)  (  5, 36,  6)  (  5, 14,  2)  (  5, 12,  1)  (  5, 31,  1)
  1 -0.5715E-06
   (  5, 22,  4)

 MAXIMUM RESIDUAL FOR EACH ITERATION (1 INDICATES THE FIRST INNER ITERATION):

    RESIDUAL       RESIDUAL       RESIDUAL       RESIDUAL       RESIDUAL    
   LAYER,ROW,COL  LAYER,ROW,COL  LAYER,ROW,COL  LAYER,ROW,COL  LAYER,ROW,COL
 ---------------------------------------------------------------------------
  1  0.6064E-03  0  0.4793E-03  0  0.4077E-03  0  0.3218E-03  0  0.2753E-03
   (  4, 44,  2)  (  4, 35, 35)  (  4, 35, 35)  (  4, 35, 35)  (  3, 40, 27)
  0  0.2301E-03  0  0.1842E-03  0  0.1501E-03  0  0.1132E-03  0 -0.8980E-04
   (  3, 40, 27)  (  3, 40, 27)  (  3, 40, 27)  (  3, 40, 27)  (  3, 35, 35)
  0 -0.7039E-04  0 -0.5269E-04  0 -0.3873E-04  0 -0.2891E-04  0 -0.2333E-04
   (  3, 35, 35)  (  3, 35, 35)  (  3, 35, 35)  (  4, 43,  4)  (  4, 34, 35)
  0 -0.1946E-04  0 -0.1680E-04  0 -0.1465E-04  0 -0.1159E-04  0 -0.9006E-05
   (  4, 34, 35)  (  4, 34, 35)  (  4, 34, 35)  (  4, 34, 35)  (  4, 34, 35)
  0 -0.7099E-05  0 -0.6410E-05  0 -0.4663E-05  0 -0.3319E-05  0 -0.2881E-05
   (  4, 34, 35)  (  4, 34, 35)  (  4, 34, 35)  (  4, 34, 35)  (  4, 34, 35)
  0 -0.2049E-05  0 -0.1475E-05  0 -0.1035E-05  0  0.7630E-06  0  0.6430E-06
   (  4, 34, 35)  (  4, 34, 35)  (  4, 34, 35)  (  4, 35, 35)  (  4, 35, 35)
  1 -0.1205E-05  0 -0.1016E-05  0 -0.7196E-06  0 -0.5473E-06  0 -0.4318E-06
   (  3, 39,  4)  (  3, 39,  4)  (  3, 39,  4)  (  3, 39,  4)  (  4, 24,  1)
  0 -0.3212E-06  0 -0.3300E-06  0 -0.2639E-06  0 -0.2379E-06  0 -0.1933E-06
   (  3, 23,  1)  (  4, 40,  1)  (  4, 44,  2)  (  4, 44,  2)  (  4, 44,  2)
  0 -0.1464E-06  0 -0.1220E-06  0  0.1018E-06  0  0.8924E-07  0  0.7123E-07
   (  4, 43,  1)  (  4, 22,  2)  (  4, 43,  4)  (  4, 43,  2)  (  4, 43,  2)
  0  0.5591E-07  0  0.4842E-07  0  0.3496E-07  0  0.2895E-07  0  0.2168E-07
   (  4, 43,  2)  (  4, 43,  2)  (  4, 44,  2)  (  4, 44,  2)  (  4, 44,  2)
  0  0.1792E-07  0  0.1172E-07  0  0.7057E-08  0  0.5021E-08  0  0.4181E-08
   (  4, 44,  2)  (  4, 44,  2)  (  4, 41,  3)  (  4, 41,  3)  (  4, 42,  3)
  1  0.4006E-08
   (  4, 42,  3)



 OUTPUT CONTROL FOR STRESS PERIOD   62   TIME STEP    1
    SAVE HEAD FOR ALL LAYERS
    SAVE DRAWDOWN FOR ALL LAYERS
    SAVE BUDGET
    PRINT BUDGET
 UBDSV1 SAVING "         STORAGE" ON UNIT   9 AT TIME STEP  1, STRESS PERIOD  62
 UBDSV2 SAVING "   CONSTANT HEAD" ON UNIT   9 AT TIME STEP  1, STRESS PERIOD  62
 UBDSV1 SAVING "FLOW RIGHT FACE " ON UNIT   9 AT TIME STEP  1, STRESS PERIOD  62
 UBDSV1 SAVING "FLOW FRONT FACE " ON UNIT   9 AT TIME STEP  1, STRESS PERIOD  62
 UBDSV1 SAVING "FLOW LOWER FACE " ON UNIT   9 AT TIME STEP  1, STRESS PERIOD  62
 UBDSV3 SAVING "        RECHARGE" ON UNIT   9 AT TIME STEP  1, STRESS PERIOD  62

 HEAD WILL BE SAVED ON UNIT   37 AT END OF TIME STEP    1, STRESS PERIOD   62

 DRAWDOWN WILL BE SAVED ON UNIT   38 AT END OF TIME STEP    1, STRESS PERIOD   62
1
  VOLUMETRIC BUDGET FOR ENTIRE MODEL AT END OF TIME STEP    1, STRESS PERIOD  62
  ------------------------------------------------------------------------------

     CUMULATIVE VOLUMES      L**3       RATES FOR THIS TIME STEP      L**3/T
     ------------------                 ------------------------

           IN:                                      IN:
           ---                                      ---
             STORAGE =       10839.9404               STORAGE =       1.2774E-03
       CONSTANT HEAD =       16407.7266         CONSTANT HEAD =       1.8247E-03
            RECHARGE =         705.9147              RECHARGE =       1.0213E-04

            TOTAL IN =       27953.5820              TOTAL IN =       3.2042E-03

          OUT:                                     OUT:
          ----                                     ----
             STORAGE =        5428.5771               STORAGE =           0.0000
       CONSTANT HEAD =       22525.7754         CONSTANT HEAD =       3.2043E-03
            RECHARGE =           0.0000              RECHARGE =           0.0000

           TOTAL OUT =       27954.3516             TOTAL OUT =       3.2043E-03

            IN - OUT =          -0.7695              IN - OUT =      -8.8476E-08

 PERCENT DISCREPANCY =          -0.00     PERCENT DISCREPANCY =          -0.00






         TIME SUMMARY AT END OF TIME STEP    1 IN STRESS PERIOD   62
                    SECONDS     MINUTES      HOURS       DAYS        YEARS
                    -----------------------------------------------------------
   TIME STEP LENGTH  86400.      1440.0      24.000      1.0000     2.73785E-03
 STRESS PERIOD TIME  86400.      1440.0      24.000      1.0000     2.73785E-03
         TOTAL TIME 6.91200E+06 1.15200E+05  1920.0      80.000     0.21903    
1
1
                            STRESS PERIOD NO.   63, LENGTH =   345600.0    
                            -----------------------------------------------

                              NUMBER OF TIME STEPS =     4

                               MULTIPLIER FOR DELT =     1.000

                            INITIAL TIME STEP SIZE =   86400.00    

 REUSING RECH FROM LAST STRESS PERIOD

 CHD NO.   LAYER   ROW   COL    START HEAD        END HEAD         IFACE           
 ----------------------------------------------------------------------------------
      1      4      3      1       109.4           109.4           0.000    
      2      5      3      1       109.4           109.4           0.000    
      3      4      3      2       109.4           109.4           0.000    
      4      5      3      2       109.4           109.4           0.000    
      5      4      3      3       109.4           109.4           0.000    
      6      5      3      3       109.4           109.4           0.000    
      7      4      3      4       109.4           109.4           0.000    
      8      5      3      4       109.4           109.4           0.000    
      9      4      3      5       109.4           109.4           0.000    
     10      5      3      5       109.4           109.4           0.000    
     11      4      3      6       109.4           109.4           0.000    
     12      5      3      6       109.4           109.4           0.000    
     13      4      3      7       109.4           109.4           0.000    
     14      5      3      7       109.4           109.4           0.000    
     15      4      3      8       109.4           109.4           0.000    
     16      5      3      8       109.4           109.4           0.000    
     17      4      2      8       109.4           109.4           0.000    
     18      5      2      8       109.4           109.4           0.000    
     19      4      2      9       109.4           109.4           0.000    
     20      5      2      9       109.4           109.4           0.000    
     21      4      2     10       109.4           109.4           0.000    
     22      5      2     10       109.4           109.4           0.000    
     23      4      2     11       109.4           109.4           0.000    
     24      5      2     11       109.4           109.4           0.000    
     25      4      2     12       109.4           109.4           0.000    
     26      5      2     12       109.4           109.4           0.000    
     27      4      2     13       109.4           109.4           0.000    
     28      5      2     13       109.4           109.4           0.000    
     29      4      2     14       109.4           109.4           0.000    
     30      5      2     14       109.4           109.4           0.000    
     31      4      2     15       109.4           109.4           0.000    
     32      5      2     15       109.4           109.4           0.000    
     33      4      2     16       109.4           109.4           0.000    
     34      5      2     16       109.4           109.4           0.000    
     35      4      2     17       109.4           109.4           0.000    
     36      5      2     17       109.4           109.4           0.000    
     37      4      2     18       109.4           109.4           0.000    
     38      5      2     18       109.4           109.4           0.000    
     39      4      2     19       109.4           109.4           0.000    
     40      5      2     19       109.4           109.4           0.000    
     41      4      2     20       109.4           109.4           0.000    
     42      5      2     20       109.4           109.4           0.000    
     43      4      2     21       109.4           109.4           0.000    
     44      5      2     21       109.4           109.4           0.000    
     45      4      2     22       109.4           109.4           0.000    
     46      5      2     22       109.4           109.4           0.000    
     47      4      2     23       109.4           109.4           0.000    
     48      5      2     23       109.4           109.4           0.000    
     49      4      2     24       109.4           109.4           0.000    
     50      5      2     24       109.4           109.4           0.000    
     51      4      2     25       109.4           109.4           0.000    
     52      5      2     25       109.4           109.4           0.000    
     53      4      2     26       109.4           109.4           0.000    
     54      5      2     26       109.4           109.4           0.000    
     55      4      1     26       109.4           109.4           0.000    
     56      5      1     26       109.4           109.4           0.000    
     57      4      1     27       109.4           109.4           0.000    
     58      5      1     27       109.4           109.4           0.000    
     59      4      1     28       109.4           109.4           0.000    
     60      5      1     28       109.4           109.4           0.000    
     61      4      1     29       109.4           109.4           0.000    
     62      5      1     29       109.4           109.4           0.000    
     63      4      1     30       109.4           109.4           0.000    
     64      5      1     30       109.4           109.4           0.000    
     65      4      1     31       109.4           109.4           0.000    
     66      5      1     31       109.4           109.4           0.000    
     67      4      1     32       109.4           109.4           0.000    
     68      5      1     32       109.4           109.4           0.000    
     69      4      1     33       109.4           109.4           0.000    
     70      5      1     33       109.4           109.4           0.000    
     71      4      1     34       109.4           109.4           0.000    
     72      5      1     34       109.4           109.4           0.000    
     73      4      1     35       109.4           109.4           0.000    
     74      5      1     35       109.4           109.4           0.000    
     75      4     36     35       109.2           109.2           0.000    
     76      5     36     35       109.2           109.2           0.000    
     77      4     35     34       109.2           109.2           0.000    
     78      5     35     34       109.2           109.2           0.000    
     79      4     36     34       109.2           109.2           0.000    
     80      5     36     34       109.2           109.2           0.000    
     81      4     36     33       109.2           109.2           0.000    
     82      5     36     33       109.2           109.2           0.000    
     83      4     36     32       109.2           109.2           0.000    
     84      5     36     32       109.2           109.2           0.000    
     85      4     37     32       109.2           109.2           0.000    
     86      5     37     32       109.2           109.2           0.000    
     87      4     37     31       109.2           109.2           0.000    
     88      5     37     31       109.2           109.2           0.000    
     89      4     38     31       109.2           109.2           0.000    
     90      5     38     31       109.2           109.2           0.000    
     91      4     38     30       109.2           109.2           0.000    
     92      5     38     30       109.2           109.2           0.000    
     93      4     39     30       109.2           109.2           0.000    
     94      5     39     30       109.2           109.2           0.000    
     95      4     39     29       109.2           109.2           0.000    
     96      5     39     29       109.2           109.2           0.000    
     97      4     40     29       109.2           109.2           0.000    
     98      5     40     29       109.2           109.2           0.000    
     99      4     40     28       109.2           109.2           0.000    
    100      5     40     28       109.2           109.2           0.000    
    101      4     40     27       109.2           109.2           0.000    
    102      5     40     27       109.2           109.2           0.000    
    103      4     41     27       109.2           109.2           0.000    
    104      5     41     27       109.2           109.2           0.000    
    105      4     41     26       109.2           109.2           0.000    
    106      5     41     26       109.2           109.2           0.000    
    107      4     41     25       109.2           109.2           0.000    
    108      5     41     25       109.2           109.2           0.000    
    109      4     41     24       109.2           109.2           0.000    
    110      5     41     24       109.2           109.2           0.000    
    111      4     41     23       109.2           109.2           0.000    
    112      5     41     23       109.2           109.2           0.000    
    113      4     41     22       109.2           109.2           0.000    
    114      5     41     22       109.2           109.2           0.000    
    115      4     42     22       109.2           109.2           0.000    
    116      5     42     22       109.2           109.2           0.000    
    117      4     42     21       109.2           109.2           0.000    
    118      5     42     21       109.2           109.2           0.000    
    119      4     42     20       109.2           109.2           0.000    
    120      5     42     20       109.2           109.2           0.000    
    121      4     42     19       109.2           109.2           0.000    
    122      5     42     19       109.2           109.2           0.000    
    123      4     43     18       109.2           109.2           0.000    
    124      5     43     18       109.2           109.2           0.000    
    125      4     42     18       109.2           109.2           0.000    
    126      5     42     18       109.2           109.2           0.000    
    127      4     42     17       109.2           109.2           0.000    
    128      5     42     17       109.2           109.2           0.000    
    129      4     42     16       109.2           109.2           0.000    
    130      5     42     16       109.2           109.2           0.000    
    131      4     42     15       109.2           109.2           0.000    
    132      5     42     15       109.2           109.2           0.000    
    133      4     43     15       109.2           109.2           0.000    
    134      5     43     15       109.2           109.2           0.000    
    135      4     43     14       109.2           109.2           0.000    
    136      5     43     14       109.2           109.2           0.000    
    137      4     43     13       109.2           109.2           0.000    
    138      5     43     13       109.2           109.2           0.000    
    139      4     43     12       109.2           109.2           0.000    
    140      5     43     12       109.2           109.2           0.000    
    141      4     43     11       109.2           109.2           0.000    
    142      5     43     11       109.2           109.2           0.000    
    143      4     43     10       109.2           109.2           0.000    
    144      5     43     10       109.2           109.2           0.000    
    145      4     44     10       109.2           109.2           0.000    
    146      5     44     10       109.2           109.2           0.000    
    147      4     44      9       109.2           109.2           0.000    
    148      5     44      9       109.2           109.2           0.000    
    149      4     44      8       109.2           109.2           0.000    
    150      5     44      8       109.2           109.2           0.000    
    151      4     44      7       109.2           109.2           0.000    
    152      5     44      7       109.2           109.2           0.000    
    153      4     44      6       109.2           109.2           0.000    
    154      5     44      6       109.2           109.2           0.000    
    155      4     44      5       109.2           109.2           0.000    
    156      5     44      5       109.2           109.2           0.000    
    157      4     44      4       109.2           109.2           0.000    
    158      5     44      4       109.2           109.2           0.000    
    159      4     44      3       109.2           109.2           0.000    
    160      5     44      3       109.2           109.2           0.000    
    161      4     45      3       109.2           109.2           0.000    
    162      5     45      3       109.2           109.2           0.000    
    163      4     45      2       109.2           109.2           0.000    
    164      5     45      2       109.2           109.2           0.000    
    165      4     45      1       109.2           109.2           0.000    
    166      5     45      1       109.2           109.2           0.000    


    166 TIME-VARIANT SPECIFIED-HEAD CELLS

 SOLVING FOR HEAD 


     3 CALLS TO PCG ROUTINE FOR TIME STEP   1 IN STRESS PERIOD   63
    48 TOTAL ITERATIONS

 MAXIMUM HEAD CHANGE FOR EACH ITERATION (1 INDICATES THE FIRST INNER ITERATION):

    HEAD CHANGE    HEAD CHANGE    HEAD CHANGE    HEAD CHANGE    HEAD CHANGE 
   LAYER,ROW,COL  LAYER,ROW,COL  LAYER,ROW,COL  LAYER,ROW,COL  LAYER,ROW,COL
 ---------------------------------------------------------------------------
  1 -0.4841E-01  0  0.2995E-01  0 -0.2124E-01  0 -0.1611E-01  0 -0.1140E-01
   (  5, 43,  5)  (  5, 38,  1)  (  5, 34,  1)  (  5, 38,  1)  (  5, 40,  1)
  0  0.1110E-01  0 -0.6512E-02  0  0.4636E-02  0 -0.4611E-02  0 -0.4454E-02
   (  5, 37,  1)  (  5, 41,  6)  (  5, 36,  5)  (  5, 37,  1)  (  5, 35,  5)
  0 -0.2836E-02  0  0.1696E-02  0 -0.1903E-02  0  0.1743E-02  0 -0.9305E-03
   (  5, 39,  1)  (  5, 37,  1)  (  5, 36,  9)  (  5, 33,  8)  (  5, 30,  8)
  0  0.5818E-03  0 -0.4470E-03  0  0.3325E-03  0 -0.3060E-03  0  0.2046E-03
   (  5, 28,  9)  (  5, 29,  1)  (  5, 34,  1)  (  5, 34,  7)  (  5, 36,  1)
  0 -0.1817E-03  0  0.1201E-03  0 -0.8954E-04  0  0.7194E-04  0 -0.5406E-04
   (  5, 34,  1)  (  5, 37,  1)  (  5, 12,  1)  (  5, 12,  1)  (  5, 14,  1)
  0  0.3721E-04  0 -0.3611E-04  0 -0.2617E-04  0  0.1490E-04  0  0.1293E-04
   (  5, 39,  2)  (  5, 37,  1)  (  5, 14,  2)  (  5, 30,  9)  (  5, 30,  1)
  1 -0.2981E-04  0  0.4514E-04  0  0.5232E-04  0  0.2902E-04  0  0.2706E-04
   (  5, 32,  1)  (  3, 27,  7)  (  3, 18,  9)  (  3, 18,  9)  (  5, 36,  1)
  0 -0.1551E-04  0 -0.1043E-04  0 -0.8333E-05  0  0.6689E-05  0 -0.4786E-05
   (  5, 34,  2)  (  5, 38,  1)  (  5, 33,  6)  (  5, 31,  5)  (  5, 41,  2)
  0 -0.3605E-05  0  0.2918E-05  0  0.2502E-05  0 -0.1780E-05  0  0.1360E-05
   (  5, 37,  9)  (  5, 14,  1)  (  5, 37,  1)  (  5, 30,  9)  (  5, 28, 10)
  0  0.1187E-05  0 -0.9625E-06  1  0.8779E-06
   (  5, 33,  1)  (  5, 30,  1)  (  5, 12,  1)

 MAXIMUM RESIDUAL FOR EACH ITERATION (1 INDICATES THE FIRST INNER ITERATION):

    RESIDUAL       RESIDUAL       RESIDUAL       RESIDUAL       RESIDUAL    
   LAYER,ROW,COL  LAYER,ROW,COL  LAYER,ROW,COL  LAYER,ROW,COL  LAYER,ROW,COL
 ---------------------------------------------------------------------------
  1  0.1308E-03  0  0.1129E-03  0  0.8869E-04  0  0.6637E-04  0 -0.5557E-04
   (  4, 35, 35)  (  4, 35, 35)  (  4, 35, 35)  (  4, 35, 35)  (  4, 43,  6)
  0 -0.5056E-04  0 -0.4186E-04  0 -0.3626E-04  0 -0.2914E-04  0 -0.2263E-04
   (  4, 43,  5)  (  4, 43,  4)  (  4, 43,  4)  (  4, 43,  4)  (  4, 43,  4)
  0 -0.1707E-04  0 -0.1440E-04  0 -0.1110E-04  0 -0.8411E-05  0 -0.6316E-05
   (  4, 44,  2)  (  4, 44,  2)  (  4, 44,  2)  (  4, 44,  2)  (  4, 44,  2)
  0 -0.4559E-05  0 -0.3529E-05  0 -0.2946E-05  0 -0.1948E-05  0 -0.1435E-05
   (  4, 44,  2)  (  4, 44,  2)  (  4, 44,  2)  (  4, 44,  2)  (  4, 34, 35)
  0 -0.1223E-05  0 -0.8888E-06  0 -0.6134E-06  0 -0.4320E-06  0  0.3345E-06
   (  4, 34, 35)  (  4, 34, 35)  (  4, 34, 35)  (  4, 43,  3)  (  4, 35, 35)
  0  0.2887E-06  0  0.2269E-06  0  0.1670E-06  0  0.1124E-06  0  0.8454E-07
   (  4, 35, 35)  (  4, 35, 35)  (  4, 35, 35)  (  4, 35, 35)  (  4, 35, 35)
  1 -0.5516E-06  0 -0.4154E-06  0 -0.2301E-06  0 -0.1255E-06  0 -0.8494E-07
   (  3, 27,  7)  (  3, 27,  7)  (  3, 27,  7)  (  3, 27,  7)  (  3, 27,  7)
  0 -0.4172E-07  0  0.3640E-07  0  0.3032E-07  0 -0.2889E-07  0 -0.2458E-07
   (  3, 27,  7)  (  4, 27,  7)  (  3, 27,  8)  (  4, 27,  6)  (  4, 27,  6)
  0 -0.1734E-07  0 -0.1245E-07  0 -0.9939E-08  0 -0.8807E-08  0 -0.6121E-08
   (  4, 26,  7)  (  3, 17, 10)  (  4, 27,  6)  (  4, 27,  6)  (  4, 27,  6)
  0 -0.5240E-08  0  0.3558E-08  1 -0.3070E-08
   (  4, 27,  6)  (  4, 28,  6)  (  4, 27,  6)



 OUTPUT CONTROL FOR STRESS PERIOD   63   TIME STEP    1
    SAVE HEAD FOR ALL LAYERS
    SAVE DRAWDOWN FOR ALL LAYERS
    SAVE BUDGET
    PRINT BUDGET
 UBDSV1 SAVING "         STORAGE" ON UNIT   9 AT TIME STEP  1, STRESS PERIOD  63
 UBDSV2 SAVING "   CONSTANT HEAD" ON UNIT   9 AT TIME STEP  1, STRESS PERIOD  63
 UBDSV1 SAVING "FLOW RIGHT FACE " ON UNIT   9 AT TIME STEP  1, STRESS PERIOD  63
 UBDSV1 SAVING "FLOW FRONT FACE " ON UNIT   9 AT TIME STEP  1, STRESS PERIOD  63
 UBDSV1 SAVING "FLOW LOWER FACE " ON UNIT   9 AT TIME STEP  1, STRESS PERIOD  63
 UBDSV3 SAVING "        RECHARGE" ON UNIT   9 AT TIME STEP  1, STRESS PERIOD  63

 HEAD WILL BE SAVED ON UNIT   37 AT END OF TIME STEP    1, STRESS PERIOD   63

 DRAWDOWN WILL BE SAVED ON UNIT   38 AT END OF TIME STEP    1, STRESS PERIOD   63
1
  VOLUMETRIC BUDGET FOR ENTIRE MODEL AT END OF TIME STEP    1, STRESS PERIOD  63
  ------------------------------------------------------------------------------

     CUMULATIVE VOLUMES      L**3       RATES FOR THIS TIME STEP      L**3/T
     ------------------                 ------------------------

           IN:                                      IN:
           ---                                      ---
             STORAGE =       10908.8643               STORAGE =       7.9772E-04
       CONSTANT HEAD =       16570.2207         CONSTANT HEAD =       1.8807E-03
            RECHARGE =         714.7386              RECHARGE =       1.0213E-04

            TOTAL IN =       28193.8242              TOTAL IN =       2.7806E-03

          OUT:                                     OUT:
          ----                                     ----
             STORAGE =        5428.5771               STORAGE =           0.0000
       CONSTANT HEAD =       22766.0254         CONSTANT HEAD =       2.7807E-03
            RECHARGE =           0.0000              RECHARGE =           0.0000

           TOTAL OUT =       28194.6016             TOTAL OUT =       2.7807E-03

            IN - OUT =          -0.7773              IN - OUT =      -8.8941E-08

 PERCENT DISCREPANCY =          -0.00     PERCENT DISCREPANCY =          -0.00






         TIME SUMMARY AT END OF TIME STEP    1 IN STRESS PERIOD   63
                    SECONDS     MINUTES      HOURS       DAYS        YEARS
                    -----------------------------------------------------------
   TIME STEP LENGTH  86400.      1440.0      24.000      1.0000     2.73785E-03
 STRESS PERIOD TIME  86400.      1440.0      24.000      1.0000     2.73785E-03
         TOTAL TIME 6.99840E+06 1.16640E+05  1944.0      81.000     0.22177    
1

 SOLVING FOR HEAD 
     3 CALLS TO PCG ROUTINE FOR TIME STEP   2 IN STRESS PERIOD   63
    48 TOTAL ITERATIONS

 MAXIMUM HEAD CHANGE FOR EACH ITERATION (1 INDICATES THE FIRST INNER ITERATION):

    HEAD CHANGE    HEAD CHANGE    HEAD CHANGE    HEAD CHANGE    HEAD CHANGE 
   LAYER,ROW,COL  LAYER,ROW,COL  LAYER,ROW,COL  LAYER,ROW,COL  LAYER,ROW,COL
 ---------------------------------------------------------------------------
  1 -0.4955E-01  0  0.2969E-01  0 -0.2114E-01  0  0.1534E-01  0 -0.1086E-01
   (  5, 43,  5)  (  5, 39,  1)  (  5, 35,  1)  (  5, 33,  2)  (  5, 40,  1)
  0  0.1052E-01  0  0.6614E-02  0  0.5065E-02  0  0.4410E-02  0 -0.3785E-02
   (  5, 37,  1)  (  5, 39,  1)  (  5, 40,  1)  (  5, 38,  5)  (  5, 35,  5)
  0 -0.2151E-02  0  0.1698E-02  0 -0.1603E-02  0  0.1152E-02  0 -0.6158E-03
   (  5, 37,  5)  (  5, 34,  5)  (  5, 36,  9)  (  5, 34,  9)  (  5, 31,  9)
  0 -0.6220E-03  0 -0.3472E-03  0  0.2812E-03  0 -0.2661E-03  0 -0.1680E-03
   (  5, 14,  1)  (  5, 26,  9)  (  5, 35,  1)  (  5, 32,  1)  (  5, 32, 11)
  0  0.1286E-03  0 -0.1198E-03  0 -0.9273E-04  0 -0.6313E-04  0 -0.4483E-04
   (  5, 33,  7)  (  5, 35,  1)  (  5, 31,  7)  (  5, 36,  1)  (  5, 12,  1)
  0  0.2715E-04  0 -0.2824E-04  0  0.2093E-04  0 -0.1305E-04  0  0.9188E-05
   (  5, 14,  3)  (  5, 38,  1)  (  5, 36,  1)  (  5, 37,  3)  (  5, 37,  1)
  1  0.2714E-04  0  0.3553E-04  0  0.3008E-04  0  0.1780E-04  0  0.1938E-04
   (  5, 31,  9)  (  5, 31,  1)  (  3, 19,  9)  (  3, 19,  9)  (  5, 36,  1)
  0 -0.1039E-04  0 -0.8584E-05  0 -0.6525E-05  0 -0.4900E-05  0  0.5042E-05
   (  5, 35,  2)  (  5, 22,  4)  (  5, 34,  6)  (  5, 38,  1)  (  5, 40,  2)
  0 -0.4943E-05  0  0.2831E-05  0  0.1918E-05  0 -0.1701E-05  0  0.1100E-05
   (  5, 38,  1)  (  5, 39,  1)  (  5, 35,  7)  (  5, 14,  1)  (  5, 28,  9)
  0  0.1133E-05  0 -0.6271E-06  1  0.4910E-06
   (  5, 38,  8)  (  5, 37,  4)  (  5, 31,  1)

 MAXIMUM RESIDUAL FOR EACH ITERATION (1 INDICATES THE FIRST INNER ITERATION):

    RESIDUAL       RESIDUAL       RESIDUAL       RESIDUAL       RESIDUAL    
   LAYER,ROW,COL  LAYER,ROW,COL  LAYER,ROW,COL  LAYER,ROW,COL  LAYER,ROW,COL
 ---------------------------------------------------------------------------
  1  0.1145E-03  0  0.9844E-04  0  0.7660E-04  0 -0.5905E-04  0 -0.5564E-04
   (  4, 35, 35)  (  4, 35, 35)  (  4, 35, 35)  (  4, 43,  6)  (  4, 43,  6)
  0 -0.4895E-04  0 -0.4063E-04  0 -0.3394E-04  0 -0.2677E-04  0 -0.2044E-04
   (  4, 43,  5)  (  4, 43,  4)  (  4, 43,  4)  (  4, 43,  4)  (  4, 43,  4)
  0 -0.1643E-04  0 -0.1324E-04  0 -0.9928E-05  0 -0.7371E-05  0 -0.5393E-05
   (  4, 44,  2)  (  4, 44,  2)  (  4, 44,  2)  (  4, 44,  2)  (  4, 44,  2)
  0 -0.3823E-05  0 -0.2749E-05  0 -0.2242E-05  0 -0.1719E-05  0 -0.1260E-05
   (  4, 44,  2)  (  4, 44,  2)  (  4, 44,  2)  (  4, 34, 35)  (  4, 34, 35)
  0 -0.9532E-06  0 -0.8019E-06  0 -0.5941E-06  0 -0.4029E-06  0  0.2927E-06
   (  4, 34, 35)  (  4, 34, 35)  (  4, 34, 35)  (  4, 34, 35)  (  4, 35, 35)
  0  0.2219E-06  0  0.1691E-06  0  0.1418E-06  0  0.9751E-07  0  0.6058E-07
   (  4, 35, 35)  (  4, 35, 35)  (  4, 35, 35)  (  4, 35, 35)  (  4, 35, 35)
  1 -0.3880E-06  0 -0.3165E-06  0 -0.1844E-06  0 -0.1046E-06  0 -0.6838E-07
   (  3, 28,  7)  (  3, 28,  7)  (  3, 28,  7)  (  3, 28,  7)  (  3, 19,  9)
  0 -0.4584E-07  0 -0.3236E-07  0  0.2430E-07  0 -0.2437E-07  0 -0.2184E-07
   (  3, 19,  9)  (  3, 19,  9)  (  3, 28,  8)  (  4, 28,  6)  (  4, 28,  6)
  0 -0.1699E-07  0 -0.1178E-07  0 -0.8090E-08  0 -0.6499E-08  0 -0.5005E-08
   (  4, 27,  7)  (  4, 27,  7)  (  4, 27,  7)  (  4, 28,  6)  (  4, 28,  6)
  0 -0.3187E-08  0  0.2664E-08  1  0.2404E-08
   (  4, 28,  6)  (  4, 29,  6)  (  4, 29,  6)



 OUTPUT CONTROL FOR STRESS PERIOD   63   TIME STEP    2
    SAVE HEAD FOR ALL LAYERS
    SAVE DRAWDOWN FOR ALL LAYERS
    SAVE BUDGET
    PRINT BUDGET
 UBDSV1 SAVING "         STORAGE" ON UNIT   9 AT TIME STEP  2, STRESS PERIOD  63
 UBDSV2 SAVING "   CONSTANT HEAD" ON UNIT   9 AT TIME STEP  2, STRESS PERIOD  63
 UBDSV1 SAVING "FLOW RIGHT FACE " ON UNIT   9 AT TIME STEP  2, STRESS PERIOD  63
 UBDSV1 SAVING "FLOW FRONT FACE " ON UNIT   9 AT TIME STEP  2, STRESS PERIOD  63
 UBDSV1 SAVING "FLOW LOWER FACE " ON UNIT   9 AT TIME STEP  2, STRESS PERIOD  63
 UBDSV3 SAVING "        RECHARGE" ON UNIT   9 AT TIME STEP  2, STRESS PERIOD  63

 HEAD WILL BE SAVED ON UNIT   37 AT END OF TIME STEP    2, STRESS PERIOD   63

 DRAWDOWN WILL BE SAVED ON UNIT   38 AT END OF TIME STEP    2, STRESS PERIOD   63
1
  VOLUMETRIC BUDGET FOR ENTIRE MODEL AT END OF TIME STEP    2, STRESS PERIOD  63
  ------------------------------------------------------------------------------

     CUMULATIVE VOLUMES      L**3       RATES FOR THIS TIME STEP      L**3/T
     ------------------                 ------------------------

           IN:                                      IN:
           ---                                      ---
             STORAGE =       10967.8691               STORAGE =       6.8293E-04
       CONSTANT HEAD =       16734.5449         CONSTANT HEAD =       1.9019E-03
            RECHARGE =         723.5626              RECHARGE =       1.0213E-04

            TOTAL IN =       28425.9766              TOTAL IN =       2.6870E-03

          OUT:                                     OUT:
          ----                                     ----
             STORAGE =        5428.5771               STORAGE =           0.0000
       CONSTANT HEAD =       22998.1875         CONSTANT HEAD =       2.6871E-03
            RECHARGE =           0.0000              RECHARGE =           0.0000

           TOTAL OUT =       28426.7656             TOTAL OUT =       2.6871E-03

            IN - OUT =          -0.7891              IN - OUT =      -9.2667E-08

 PERCENT DISCREPANCY =          -0.00     PERCENT DISCREPANCY =          -0.00






         TIME SUMMARY AT END OF TIME STEP    2 IN STRESS PERIOD   63
                    SECONDS     MINUTES      HOURS       DAYS        YEARS
                    -----------------------------------------------------------
   TIME STEP LENGTH  86400.      1440.0      24.000      1.0000     2.73785E-03
 STRESS PERIOD TIME 1.72800E+05  2880.0      48.000      2.0000     5.47570E-03
         TOTAL TIME 7.08480E+06 1.18080E+05  1968.0      82.000     0.22450    
1

 SOLVING FOR HEAD 
     3 CALLS TO PCG ROUTINE FOR TIME STEP   3 IN STRESS PERIOD   63
    49 TOTAL ITERATIONS

 MAXIMUM HEAD CHANGE FOR EACH ITERATION (1 INDICATES THE FIRST INNER ITERATION):

    HEAD CHANGE    HEAD CHANGE    HEAD CHANGE    HEAD CHANGE    HEAD CHANGE 
   LAYER,ROW,COL  LAYER,ROW,COL  LAYER,ROW,COL  LAYER,ROW,COL  LAYER,ROW,COL
 ---------------------------------------------------------------------------
  1 -0.4948E-01  0  0.2948E-01  0 -0.2024E-01  0 -0.1529E-01  0 -0.1131E-01
   (  5, 43,  5)  (  5, 39,  1)  (  5, 35,  1)  (  5, 39,  1)  (  5, 30,  2)
  0  0.1006E-01  0 -0.6530E-02  0  0.5207E-02  0  0.4331E-02  0 -0.3540E-02
   (  5, 37,  1)  (  5, 35,  2)  (  5, 40,  1)  (  5, 39,  5)  (  5, 35,  5)
  0 -0.2288E-02  0  0.1718E-02  0 -0.1412E-02  0  0.9213E-03  0  0.7165E-03
   (  5, 37,  5)  (  5, 35,  5)  (  5, 36,  9)  (  5, 34,  9)  (  5, 35,  8)
  0 -0.6538E-03  0  0.3703E-03  0  0.2512E-03  0 -0.2646E-03  0 -0.1680E-03
   (  5, 14,  1)  (  5, 13,  1)  (  5, 33,  3)  (  5, 32,  1)  (  5, 32, 11)
  0  0.1353E-03  0  0.1006E-03  0 -0.8502E-04  0  0.6111E-04  0 -0.4616E-04
   (  5, 29, 10)  (  5, 37,  1)  (  5, 36,  1)  (  5, 12,  1)  (  5, 12,  2)
  0 -0.3977E-04  0  0.2669E-04  0 -0.2446E-04  0 -0.1395E-04  0  0.1252E-04
   (  5, 37,  1)  (  5, 40,  2)  (  5, 13,  2)  (  5, 35,  6)  (  5, 37,  1)
  1  0.3959E-04  0  0.5742E-04  0  0.5918E-04  0  0.3572E-04  0  0.3773E-04
   (  5, 22,  4)  (  3, 20,  4)  (  5, 25,  1)  (  3, 21,  2)  (  5, 32,  1)
  0 -0.1886E-04  0  0.2334E-04  0 -0.1595E-04  0 -0.8084E-05  0  0.6428E-05
   (  5, 35,  2)  (  5, 36,  1)  (  5, 38,  1)  (  5, 14,  1)  (  5, 13,  1)
  0 -0.4493E-05  0  0.3424E-05  0 -0.2524E-05  0 -0.1858E-05  0  0.1731E-05
   (  5, 13,  1)  (  5, 32, 11)  (  5, 30,  9)  (  5, 14,  1)  (  5, 14,  2)
  0  0.1206E-05  0 -0.1064E-05  0  0.7145E-06  1 -0.6893E-06
   (  5, 25,  1)  (  5, 30,  1)  (  5, 41,  2)  (  5, 41,  1)

 MAXIMUM RESIDUAL FOR EACH ITERATION (1 INDICATES THE FIRST INNER ITERATION):

    RESIDUAL       RESIDUAL       RESIDUAL       RESIDUAL       RESIDUAL    
   LAYER,ROW,COL  LAYER,ROW,COL  LAYER,ROW,COL  LAYER,ROW,COL  LAYER,ROW,COL
 ---------------------------------------------------------------------------
  1  0.1118E-03  0  0.9570E-04  0  0.7384E-04  0 -0.5928E-04  0 -0.5453E-04
   (  4, 35, 35)  (  4, 35, 35)  (  4, 35, 35)  (  4, 43,  6)  (  4, 43,  6)
  0 -0.4827E-04  0 -0.4029E-04  0 -0.3364E-04  0 -0.2644E-04  0 -0.2006E-04
   (  4, 43,  5)  (  4, 43,  4)  (  4, 43,  4)  (  4, 43,  4)  (  4, 43,  4)
  0 -0.1628E-04  0 -0.1303E-04  0 -0.9730E-05  0 -0.7200E-05  0 -0.5235E-05
   (  4, 44,  2)  (  4, 44,  2)  (  4, 44,  2)  (  4, 44,  2)  (  4, 44,  2)
  0 -0.3674E-05  0 -0.2613E-05  0 -0.2049E-05  0 -0.1700E-05  0 -0.1257E-05
   (  4, 44,  2)  (  4, 44,  2)  (  4, 44,  2)  (  4, 34, 35)  (  4, 34, 35)
  0 -0.9653E-06  0 -0.8121E-06  0 -0.5967E-06  0 -0.4026E-06  0  0.2892E-06
   (  4, 34, 35)  (  4, 34, 35)  (  4, 34, 35)  (  4, 34, 35)  (  4, 35, 35)
  0  0.2420E-06  0  0.1943E-06  0  0.1445E-06  0  0.9718E-07  0  0.6523E-07
   (  4, 35, 35)  (  4, 35, 35)  (  4, 35, 35)  (  4, 35, 35)  (  4, 35, 35)
  1 -0.4648E-06  0 -0.3584E-06  0 -0.2471E-06  0 -0.1675E-06  0 -0.1049E-06
   (  3, 21,  2)  (  3, 21,  2)  (  3, 21,  2)  (  3, 21,  2)  (  3, 21,  2)
  0 -0.6094E-07  0 -0.4618E-07  0 -0.5191E-07  0 -0.4101E-07  0 -0.3426E-07
   (  3, 21,  2)  (  4, 20,  3)  (  4, 20,  3)  (  4, 20,  3)  (  4, 20,  3)
  0 -0.2990E-07  0 -0.1760E-07  0 -0.1307E-07  0 -0.9016E-08  0 -0.6709E-08
   (  4, 20,  3)  (  4, 20,  2)  (  4, 20,  2)  (  4, 20,  2)  (  4, 20,  2)
  0 -0.5704E-08  0 -0.4627E-08  0 -0.3407E-08  1 -0.3271E-08
   (  4, 20,  2)  (  4, 21,  1)  (  4, 21,  1)  (  4, 21,  1)



 OUTPUT CONTROL FOR STRESS PERIOD   63   TIME STEP    3
    SAVE HEAD FOR ALL LAYERS
    SAVE DRAWDOWN FOR ALL LAYERS
    SAVE BUDGET
    PRINT BUDGET
 UBDSV1 SAVING "         STORAGE" ON UNIT   9 AT TIME STEP  3, STRESS PERIOD  63
 UBDSV2 SAVING "   CONSTANT HEAD" ON UNIT   9 AT TIME STEP  3, STRESS PERIOD  63
 UBDSV1 SAVING "FLOW RIGHT FACE " ON UNIT   9 AT TIME STEP  3, STRESS PERIOD  63
 UBDSV1 SAVING "FLOW FRONT FACE " ON UNIT   9 AT TIME STEP  3, STRESS PERIOD  63
 UBDSV1 SAVING "FLOW LOWER FACE " ON UNIT   9 AT TIME STEP  3, STRESS PERIOD  63
 UBDSV3 SAVING "        RECHARGE" ON UNIT   9 AT TIME STEP  3, STRESS PERIOD  63

 HEAD WILL BE SAVED ON UNIT   37 AT END OF TIME STEP    3, STRESS PERIOD   63

 DRAWDOWN WILL BE SAVED ON UNIT   38 AT END OF TIME STEP    3, STRESS PERIOD   63
1
  VOLUMETRIC BUDGET FOR ENTIRE MODEL AT END OF TIME STEP    3, STRESS PERIOD  63
  ------------------------------------------------------------------------------

     CUMULATIVE VOLUMES      L**3       RATES FOR THIS TIME STEP      L**3/T
     ------------------                 ------------------------

           IN:                                      IN:
           ---                                      ---
             STORAGE =       11023.9131               STORAGE =       6.4866E-04
       CONSTANT HEAD =       16898.6699         CONSTANT HEAD =       1.8996E-03
            RECHARGE =         732.3865              RECHARGE =       1.0213E-04

            TOTAL IN =       28654.9688              TOTAL IN =       2.6504E-03

          OUT:                                     OUT:
          ----                                     ----
             STORAGE =        5428.5771               STORAGE =           0.0000
       CONSTANT HEAD =       23227.1875         CONSTANT HEAD =       2.6505E-03
            RECHARGE =           0.0000              RECHARGE =           0.0000

           TOTAL OUT =       28655.7656             TOTAL OUT =       2.6505E-03

            IN - OUT =          -0.7969              IN - OUT =      -8.5216E-08

 PERCENT DISCREPANCY =          -0.00     PERCENT DISCREPANCY =          -0.00






         TIME SUMMARY AT END OF TIME STEP    3 IN STRESS PERIOD   63
                    SECONDS     MINUTES      HOURS       DAYS        YEARS
                    -----------------------------------------------------------
   TIME STEP LENGTH  86400.      1440.0      24.000      1.0000     2.73785E-03
 STRESS PERIOD TIME 2.59200E+05  4320.0      72.000      3.0000     8.21355E-03
         TOTAL TIME 7.17120E+06 1.19520E+05  1992.0      83.000     0.22724    
1

 SOLVING FOR HEAD 
     3 CALLS TO PCG ROUTINE FOR TIME STEP   4 IN STRESS PERIOD   63
    47 TOTAL ITERATIONS

 MAXIMUM HEAD CHANGE FOR EACH ITERATION (1 INDICATES THE FIRST INNER ITERATION):

    HEAD CHANGE    HEAD CHANGE    HEAD CHANGE    HEAD CHANGE    HEAD CHANGE 
   LAYER,ROW,COL  LAYER,ROW,COL  LAYER,ROW,COL  LAYER,ROW,COL  LAYER,ROW,COL
 ---------------------------------------------------------------------------
  1 -0.4928E-01  0  0.2929E-01  0 -0.1983E-01  0 -0.1566E-01  0 -0.1148E-01
   (  5, 43,  5)  (  5, 39,  1)  (  5, 35,  1)  (  5, 39,  1)  (  5, 31,  2)
  0  0.9953E-02  0 -0.6773E-02  0  0.5119E-02  0 -0.4344E-02  0 -0.3457E-02
   (  5, 37,  1)  (  5, 35,  2)  (  5, 40,  1)  (  5, 37,  1)  (  5, 35,  5)
  0 -0.2185E-02  0  0.1742E-02  0 -0.1363E-02  0  0.8982E-03  0  0.7122E-03
   (  5, 38,  5)  (  5, 35,  5)  (  5, 36,  8)  (  5, 34,  9)  (  5, 35,  8)
  0 -0.6066E-03  0  0.4213E-03  0  0.2446E-03  0 -0.2643E-03  0  0.1602E-03
   (  5, 14,  1)  (  5, 14,  1)  (  5, 36,  1)  (  5, 32,  1)  (  5, 12,  1)
  0 -0.1334E-03  0  0.9334E-04  0 -0.8501E-04  0  0.5476E-04  0 -0.4486E-04
   (  5, 35,  1)  (  5, 36,  3)  (  5, 36,  1)  (  5, 32, 10)  (  5, 37,  1)
  0  0.2975E-04  0 -0.3300E-04  0 -0.2373E-04  0  0.1292E-04  0  0.1224E-04
   (  5, 39,  2)  (  5, 38,  1)  (  5, 13,  2)  (  5, 13,  2)  (  5, 37,  1)
  1  0.2055E-04  0  0.3110E-04  0 -0.1922E-04  0  0.2389E-04  0  0.1075E-04
   (  5, 26,  9)  (  5, 38,  1)  (  5, 31,  1)  (  5, 32,  1)  (  5, 29,  9)
  0  0.8689E-05  0 -0.6305E-05  0 -0.7441E-05  0  0.6196E-05  0 -0.3392E-05
   (  5, 15,  1)  (  5, 23,  1)  (  5, 38,  1)  (  5, 36,  1)  (  5, 36,  3)
  0 -0.2750E-05  0 -0.2188E-05  0 -0.2212E-05  0 -0.1262E-05  0  0.1150E-05
   (  5, 32,  6)  (  5, 34,  1)  (  5, 40,  1)  (  5, 14,  1)  (  5, 13,  1)
  0 -0.9128E-06  1 -0.4302E-06
   (  5, 13,  1)  (  5, 27,  1)

 MAXIMUM RESIDUAL FOR EACH ITERATION (1 INDICATES THE FIRST INNER ITERATION):

    RESIDUAL       RESIDUAL       RESIDUAL       RESIDUAL       RESIDUAL    
   LAYER,ROW,COL  LAYER,ROW,COL  LAYER,ROW,COL  LAYER,ROW,COL  LAYER,ROW,COL
 ---------------------------------------------------------------------------
  1  0.1113E-03  0  0.9503E-04  0  0.7304E-04  0 -0.5924E-04  0 -0.5408E-04
   (  4, 35, 35)  (  4, 35, 35)  (  4, 35, 35)  (  4, 43,  6)  (  4, 43,  6)
  0 -0.4786E-04  0 -0.3996E-04  0 -0.3331E-04  0 -0.2610E-04  0 -0.1969E-04
   (  4, 43,  5)  (  4, 43,  4)  (  4, 43,  4)  (  4, 43,  4)  (  4, 43,  4)
  0 -0.1608E-04  0 -0.1279E-04  0 -0.9487E-05  0 -0.6956E-05  0 -0.5018E-05
   (  4, 44,  2)  (  4, 44,  2)  (  4, 44,  2)  (  4, 44,  2)  (  4, 44,  2)
  0 -0.3461E-05  0 -0.2451E-05  0 -0.1957E-05  0 -0.1640E-05  0 -0.1221E-05
   (  4, 44,  2)  (  4, 44,  2)  (  4, 34, 35)  (  4, 34, 35)  (  4, 34, 35)
  0 -0.9240E-06  0 -0.7759E-06  0 -0.5681E-06  0 -0.3869E-06  0  0.2836E-06
   (  4, 34, 35)  (  4, 34, 35)  (  4, 34, 35)  (  4, 34, 35)  (  4, 35, 35)
  0  0.2432E-06  0  0.1884E-06  0  0.1395E-06  0  0.9287E-07  0  0.6004E-07
   (  4, 35, 35)  (  4, 35, 35)  (  4, 35, 35)  (  4, 35, 35)  (  4, 35, 35)
  1 -0.3399E-06  0 -0.2356E-06  0 -0.1683E-06  0 -0.1024E-06  0 -0.5097E-07
   (  3, 25,  8)  (  3, 25,  8)  (  3, 25,  8)  (  3, 25,  8)  (  3, 25,  8)
  0 -0.2588E-07  0 -0.2209E-07  0 -0.1986E-07  0 -0.2014E-07  0 -0.1730E-07
   (  2,  2, 26)  (  2,  2, 26)  (  4, 24,  8)  (  4, 24,  8)  (  4, 24,  8)
  0 -0.1318E-07  0 -0.1011E-07  0 -0.7392E-08  0 -0.5457E-08  0 -0.3427E-08
   (  4, 25,  7)  (  4, 25,  7)  (  4, 25,  7)  (  4, 25,  7)  (  4, 24,  8)
  0 -0.2618E-08  1 -0.2484E-08
   (  2,  2, 26)  (  2,  2, 26)



 OUTPUT CONTROL FOR STRESS PERIOD   63   TIME STEP    4
    SAVE HEAD FOR ALL LAYERS
    SAVE DRAWDOWN FOR ALL LAYERS
    SAVE BUDGET
    PRINT BUDGET
 UBDSV1 SAVING "         STORAGE" ON UNIT   9 AT TIME STEP  4, STRESS PERIOD  63
 UBDSV2 SAVING "   CONSTANT HEAD" ON UNIT   9 AT TIME STEP  4, STRESS PERIOD  63
 UBDSV1 SAVING "FLOW RIGHT FACE " ON UNIT   9 AT TIME STEP  4, STRESS PERIOD  63
 UBDSV1 SAVING "FLOW FRONT FACE " ON UNIT   9 AT TIME STEP  4, STRESS PERIOD  63
 UBDSV1 SAVING "FLOW LOWER FACE " ON UNIT   9 AT TIME STEP  4, STRESS PERIOD  63
 UBDSV3 SAVING "        RECHARGE" ON UNIT   9 AT TIME STEP  4, STRESS PERIOD  63

 HEAD WILL BE SAVED ON UNIT   37 AT END OF TIME STEP    4, STRESS PERIOD   63

 DRAWDOWN WILL BE SAVED ON UNIT   38 AT END OF TIME STEP    4, STRESS PERIOD   63
1
  VOLUMETRIC BUDGET FOR ENTIRE MODEL AT END OF TIME STEP    4, STRESS PERIOD  63
  ------------------------------------------------------------------------------

     CUMULATIVE VOLUMES      L**3       RATES FOR THIS TIME STEP      L**3/T
     ------------------                 ------------------------

           IN:                                      IN:
           ---                                      ---
             STORAGE =       11079.0957               STORAGE =       6.3869E-04
       CONSTANT HEAD =       17061.8047         CONSTANT HEAD =       1.8881E-03
            RECHARGE =         741.2104              RECHARGE =       1.0213E-04

            TOTAL IN =       28882.1113              TOTAL IN =       2.6289E-03

          OUT:                                     OUT:
          ----                                     ----
             STORAGE =        5428.5771               STORAGE =           0.0000
       CONSTANT HEAD =       23454.3359         CONSTANT HEAD =       2.6290E-03
            RECHARGE =           0.0000              RECHARGE =           0.0000

           TOTAL OUT =       28882.9141             TOTAL OUT =       2.6290E-03

            IN - OUT =          -0.8027              IN - OUT =      -9.8953E-08

 PERCENT DISCREPANCY =          -0.00     PERCENT DISCREPANCY =          -0.00






         TIME SUMMARY AT END OF TIME STEP    4 IN STRESS PERIOD   63
                    SECONDS     MINUTES      HOURS       DAYS        YEARS
                    -----------------------------------------------------------
   TIME STEP LENGTH  86400.      1440.0      24.000      1.0000     2.73785E-03
 STRESS PERIOD TIME 3.45600E+05  5760.0      96.000      4.0000     1.09514E-02
         TOTAL TIME 7.25760E+06 1.20960E+05  2016.0      84.000     0.22998    
1
1
                            STRESS PERIOD NO.   64, LENGTH =   86400.00    
                            -----------------------------------------------

                              NUMBER OF TIME STEPS =     1

                               MULTIPLIER FOR DELT =     1.000

                            INITIAL TIME STEP SIZE =   86400.00    

 REUSING RECH FROM LAST STRESS PERIOD

 CHD NO.   LAYER   ROW   COL    START HEAD        END HEAD         IFACE           
 ----------------------------------------------------------------------------------
      1      4      3      1       109.4           109.4           0.000    
      2      5      3      1       109.4           109.4           0.000    
      3      4      3      2       109.4           109.4           0.000    
      4      5      3      2       109.4           109.4           0.000    
      5      4      3      3       109.4           109.4           0.000    
      6      5      3      3       109.4           109.4           0.000    
      7      4      3      4       109.4           109.4           0.000    
      8      5      3      4       109.4           109.4           0.000    
      9      4      3      5       109.4           109.4           0.000    
     10      5      3      5       109.4           109.4           0.000    
     11      4      3      6       109.4           109.4           0.000    
     12      5      3      6       109.4           109.4           0.000    
     13      4      3      7       109.4           109.4           0.000    
     14      5      3      7       109.4           109.4           0.000    
     15      4      3      8       109.4           109.4           0.000    
     16      5      3      8       109.4           109.4           0.000    
     17      4      2      8       109.4           109.4           0.000    
     18      5      2      8       109.4           109.4           0.000    
     19      4      2      9       109.4           109.4           0.000    
     20      5      2      9       109.4           109.4           0.000    
     21      4      2     10       109.4           109.4           0.000    
     22      5      2     10       109.4           109.4           0.000    
     23      4      2     11       109.4           109.4           0.000    
     24      5      2     11       109.4           109.4           0.000    
     25      4      2     12       109.4           109.4           0.000    
     26      5      2     12       109.4           109.4           0.000    
     27      4      2     13       109.4           109.4           0.000    
     28      5      2     13       109.4           109.4           0.000    
     29      4      2     14       109.4           109.4           0.000    
     30      5      2     14       109.4           109.4           0.000    
     31      4      2     15       109.4           109.4           0.000    
     32      5      2     15       109.4           109.4           0.000    
     33      4      2     16       109.4           109.4           0.000    
     34      5      2     16       109.4           109.4           0.000    
     35      4      2     17       109.4           109.4           0.000    
     36      5      2     17       109.4           109.4           0.000    
     37      4      2     18       109.4           109.4           0.000    
     38      5      2     18       109.4           109.4           0.000    
     39      4      2     19       109.4           109.4           0.000    
     40      5      2     19       109.4           109.4           0.000    
     41      4      2     20       109.4           109.4           0.000    
     42      5      2     20       109.4           109.4           0.000    
     43      4      2     21       109.4           109.4           0.000    
     44      5      2     21       109.4           109.4           0.000    
     45      4      2     22       109.4           109.4           0.000    
     46      5      2     22       109.4           109.4           0.000    
     47      4      2     23       109.4           109.4           0.000    
     48      5      2     23       109.4           109.4           0.000    
     49      4      2     24       109.4           109.4           0.000    
     50      5      2     24       109.4           109.4           0.000    
     51      4      2     25       109.4           109.4           0.000    
     52      5      2     25       109.4           109.4           0.000    
     53      4      2     26       109.4           109.4           0.000    
     54      5      2     26       109.4           109.4           0.000    
     55      4      1     26       109.4           109.4           0.000    
     56      5      1     26       109.4           109.4           0.000    
     57      4      1     27       109.4           109.4           0.000    
     58      5      1     27       109.4           109.4           0.000    
     59      4      1     28       109.4           109.4           0.000    
     60      5      1     28       109.4           109.4           0.000    
     61      4      1     29       109.4           109.4           0.000    
     62      5      1     29       109.4           109.4           0.000    
     63      4      1     30       109.4           109.4           0.000    
     64      5      1     30       109.4           109.4           0.000    
     65      4      1     31       109.4           109.4           0.000    
     66      5      1     31       109.4           109.4           0.000    
     67      4      1     32       109.4           109.4           0.000    
     68      5      1     32       109.4           109.4           0.000    
     69      4      1     33       109.4           109.4           0.000    
     70      5      1     33       109.4           109.4           0.000    
     71      4      1     34       109.4           109.4           0.000    
     72      5      1     34       109.4           109.4           0.000    
     73      4      1     35       109.4           109.4           0.000    
     74      5      1     35       109.4           109.4           0.000    
     75      4     36     35       109.2           109.3           0.000    
     76      5     36     35       109.2           109.3           0.000    
     77      4     35     34       109.2           109.3           0.000    
     78      5     35     34       109.2           109.3           0.000    
     79      4     36     34       109.2           109.3           0.000    
     80      5     36     34       109.2           109.3           0.000    
     81      4     36     33       109.2           109.3           0.000    
     82      5     36     33       109.2           109.3           0.000    
     83      4     36     32       109.2           109.3           0.000    
     84      5     36     32       109.2           109.3           0.000    
     85      4     37     32       109.2           109.3           0.000    
     86      5     37     32       109.2           109.3           0.000    
     87      4     37     31       109.2           109.3           0.000    
     88      5     37     31       109.2           109.3           0.000    
     89      4     38     31       109.2           109.3           0.000    
     90      5     38     31       109.2           109.3           0.000    
     91      4     38     30       109.2           109.2           0.000    
     92      5     38     30       109.2           109.2           0.000    
     93      4     39     30       109.2           109.2           0.000    
     94      5     39     30       109.2           109.2           0.000    
     95      4     39     29       109.2           109.2           0.000    
     96      5     39     29       109.2           109.2           0.000    
     97      4     40     29       109.2           109.2           0.000    
     98      5     40     29       109.2           109.2           0.000    
     99      4     40     28       109.2           109.2           0.000    
    100      5     40     28       109.2           109.2           0.000    
    101      4     40     27       109.2           109.2           0.000    
    102      5     40     27       109.2           109.2           0.000    
    103      4     41     27       109.2           109.2           0.000    
    104      5     41     27       109.2           109.2           0.000    
    105      4     41     26       109.2           109.2           0.000    
    106      5     41     26       109.2           109.2           0.000    
    107      4     41     25       109.2           109.2           0.000    
    108      5     41     25       109.2           109.2           0.000    
    109      4     41     24       109.2           109.2           0.000    
    110      5     41     24       109.2           109.2           0.000    
    111      4     41     23       109.2           109.2           0.000    
    112      5     41     23       109.2           109.2           0.000    
    113      4     41     22       109.2           109.2           0.000    
    114      5     41     22       109.2           109.2           0.000    
    115      4     42     22       109.2           109.2           0.000    
    116      5     42     22       109.2           109.2           0.000    
    117      4     42     21       109.2           109.2           0.000    
    118      5     42     21       109.2           109.2           0.000    
    119      4     42     20       109.2           109.2           0.000    
    120      5     42     20       109.2           109.2           0.000    
    121      4     42     19       109.2           109.2           0.000    
    122      5     42     19       109.2           109.2           0.000    
    123      4     43     18       109.2           109.2           0.000    
    124      5     43     18       109.2           109.2           0.000    
    125      4     42     18       109.2           109.2           0.000    
    126      5     42     18       109.2           109.2           0.000    
    127      4     42     17       109.2           109.2           0.000    
    128      5     42     17       109.2           109.2           0.000    
    129      4     42     16       109.2           109.2           0.000    
    130      5     42     16       109.2           109.2           0.000    
    131      4     42     15       109.2           109.2           0.000    
    132      5     42     15       109.2           109.2           0.000    
    133      4     43     15       109.2           109.2           0.000    
    134      5     43     15       109.2           109.2           0.000    
    135      4     43     14       109.2           109.2           0.000    
    136      5     43     14       109.2           109.2           0.000    
    137      4     43     13       109.2           109.2           0.000    
    138      5     43     13       109.2           109.2           0.000    
    139      4     43     12       109.2           109.2           0.000    
    140      5     43     12       109.2           109.2           0.000    
    141      4     43     11       109.2           109.2           0.000    
    142      5     43     11       109.2           109.2           0.000    
    143      4     43     10       109.2           109.2           0.000    
    144      5     43     10       109.2           109.2           0.000    
    145      4     44     10       109.2           109.2           0.000    
    146      5     44     10       109.2           109.2           0.000    
    147      4     44      9       109.2           109.2           0.000    
    148      5     44      9       109.2           109.2           0.000    
    149      4     44      8       109.2           109.2           0.000    
    150      5     44      8       109.2           109.2           0.000    
    151      4     44      7       109.2           109.2           0.000    
    152      5     44      7       109.2           109.2           0.000    
    153      4     44      6       109.2           109.2           0.000    
    154      5     44      6       109.2           109.2           0.000    
    155      4     44      5       109.2           109.2           0.000    
    156      5     44      5       109.2           109.2           0.000    
    157      4     44      4       109.2           109.2           0.000    
    158      5     44      4       109.2           109.2           0.000    
    159      4     44      3       109.2           109.2           0.000    
    160      5     44      3       109.2           109.2           0.000    
    161      4     45      3       109.2           109.2           0.000    
    162      5     45      3       109.2           109.2           0.000    
    163      4     45      2       109.2           109.2           0.000    
    164      5     45      2       109.2           109.2           0.000    
    165      4     45      1       109.2           109.2           0.000    
    166      5     45      1       109.2           109.2           0.000    


    166 TIME-VARIANT SPECIFIED-HEAD CELLS

 SOLVING FOR HEAD 


     3 CALLS TO PCG ROUTINE FOR TIME STEP   1 IN STRESS PERIOD   64
    52 TOTAL ITERATIONS

 MAXIMUM HEAD CHANGE FOR EACH ITERATION (1 INDICATES THE FIRST INNER ITERATION):

    HEAD CHANGE    HEAD CHANGE    HEAD CHANGE    HEAD CHANGE    HEAD CHANGE 
   LAYER,ROW,COL  LAYER,ROW,COL  LAYER,ROW,COL  LAYER,ROW,COL  LAYER,ROW,COL
 ---------------------------------------------------------------------------
  1  0.1859      0 -0.8142E-01  0 -0.7045E-01  0  0.8939E-01  0 -0.6234E-01
   (  5, 43,  5)  (  5, 40,  1)  (  5, 42,  1)  (  5, 38,  1)  (  5, 35,  1)
  0  0.3742E-01  0  0.2571E-01  0 -0.1566E-01  0  0.1692E-01  0 -0.1292E-01
   (  5, 33,  2)  (  5, 41,  5)  (  5, 40,  1)  (  5, 37,  1)  (  5, 40,  5)
  0  0.1024E-01  0 -0.6521E-02  0 -0.4989E-02  0  0.4305E-02  0 -0.3204E-02
   (  5, 39,  1)  (  5, 42,  1)  (  5, 36,  5)  (  5, 37,  8)  (  5, 35,  8)
  0  0.2454E-02  0  0.1350E-02  0 -0.1324E-02  0  0.1455E-02  0 -0.7485E-03
   (  5, 14,  1)  (  5, 36,  4)  (  5, 34,  1)  (  5, 13,  1)  (  5, 12,  1)
  0 -0.5743E-03  0  0.5227E-03  0 -0.3713E-03  0  0.2570E-03  0  0.1961E-03
   (  5, 37,  1)  (  5, 35,  1)  (  5, 37,  4)  (  5, 36,  1)  (  5, 12,  2)
  0 -0.1267E-03  0  0.1339E-03  0  0.8501E-04  0  0.4834E-04  0 -0.3147E-04
   (  5, 39,  2)  (  5, 38,  1)  (  5, 34,  6)  (  5, 15,  1)  (  5, 33,  6)
  1  0.1182E-03  0  0.1881E-03  0 -0.7195E-04  0  0.1144E-03  0 -0.6747E-04
   (  5, 36,  6)  (  5, 26,  2)  (  5, 31,  3)  (  5, 32,  1)  (  5, 35,  1)
  0  0.5613E-04  0 -0.4076E-04  0  0.2447E-04  0 -0.1878E-04  0  0.1952E-04
   (  5, 38,  2)  (  5, 36,  1)  (  5, 38,  1)  (  5, 38,  3)  (  5, 37,  1)
  0  0.1493E-04  0  0.9623E-05  0  0.9264E-05  0  0.5532E-05  0  0.4707E-05
   (  5, 29, 10)  (  5, 33,  9)  (  5, 40,  2)  (  5, 37,  7)  (  5, 30,  9)
  0 -0.2759E-05  0  0.2421E-05  0 -0.3148E-05  0 -0.2164E-05  0  0.1171E-05
   (  5, 14,  1)  (  5, 30,  1)  (  5, 33,  1)  (  5, 12,  1)  (  5, 13,  1)
  0  0.7672E-06  1 -0.6560E-06
   (  5, 39,  3)  (  5, 36,  1)

 MAXIMUM RESIDUAL FOR EACH ITERATION (1 INDICATES THE FIRST INNER ITERATION):

    RESIDUAL       RESIDUAL       RESIDUAL       RESIDUAL       RESIDUAL    
   LAYER,ROW,COL  LAYER,ROW,COL  LAYER,ROW,COL  LAYER,ROW,COL  LAYER,ROW,COL
 ---------------------------------------------------------------------------
  1 -0.6993E-03  0 -0.5352E-03  0 -0.4383E-03  0 -0.3563E-03  0 -0.3028E-03
   (  4, 44,  2)  (  4, 35, 35)  (  4, 35, 35)  (  3, 40, 27)  (  3, 40, 27)
  0 -0.2471E-03  0 -0.1908E-03  0 -0.1521E-03  0 -0.1163E-03  0  0.8987E-04
   (  3, 40, 27)  (  3, 40, 27)  (  3, 40, 27)  (  4, 35, 35)  (  3, 35, 35)
  0  0.6948E-04  0  0.5110E-04  0  0.3588E-04  0  0.2838E-04  0  0.2276E-04
   (  3, 35, 35)  (  3, 35, 35)  (  4, 34, 35)  (  4, 34, 35)  (  4, 34, 35)
  0  0.1778E-04  0  0.1519E-04  0  0.1317E-04  0  0.1038E-04  0  0.7936E-05
   (  4, 34, 35)  (  4, 34, 35)  (  4, 34, 35)  (  4, 34, 35)  (  4, 34, 35)
  0  0.6394E-05  0  0.5418E-05  0  0.4148E-05  0  0.2946E-05  0  0.2109E-05
   (  4, 34, 35)  (  4, 34, 35)  (  4, 34, 35)  (  4, 34, 35)  (  4, 34, 35)
  0  0.1645E-05  0  0.1285E-05  0 -0.8996E-06  0 -0.6432E-06  0 -0.4589E-06
   (  4, 34, 35)  (  4, 34, 35)  (  4, 35, 35)  (  4, 35, 35)  (  4, 35, 35)
  1 -0.1714E-05  0 -0.1002E-05  0 -0.5684E-06  0 -0.2747E-06  0 -0.2531E-06
   (  3, 44,  4)  (  3, 44,  4)  (  3, 44,  4)  (  3, 44,  4)  (  4, 43,  2)
  0  0.2384E-06  0  0.1968E-06  0 -0.1631E-06  0 -0.1472E-06  0 -0.1342E-06
   (  3, 44,  5)  (  3, 44,  5)  (  4, 44,  1)  (  4, 44,  1)  (  4, 44,  1)
  0 -0.1086E-06  0 -0.8449E-07  0 -0.6535E-07  0 -0.4891E-07  0 -0.3512E-07
   (  4, 44,  1)  (  4, 44,  1)  (  4, 44,  1)  (  4, 44,  1)  (  4, 44,  1)
  0  0.2418E-07  0  0.2225E-07  0  0.1786E-07  0  0.1311E-07  0  0.9611E-08
   (  4, 44,  2)  (  4, 44,  2)  (  4, 44,  2)  (  4, 44,  2)  (  4, 44,  2)
  0  0.7576E-08  1  0.7479E-08
   (  4, 44,  2)  (  4, 44,  2)



 OUTPUT CONTROL FOR STRESS PERIOD   64   TIME STEP    1
    SAVE HEAD FOR ALL LAYERS
    SAVE DRAWDOWN FOR ALL LAYERS
    SAVE BUDGET
    PRINT BUDGET
 UBDSV1 SAVING "         STORAGE" ON UNIT   9 AT TIME STEP  1, STRESS PERIOD  64
 UBDSV2 SAVING "   CONSTANT HEAD" ON UNIT   9 AT TIME STEP  1, STRESS PERIOD  64
 UBDSV1 SAVING "FLOW RIGHT FACE " ON UNIT   9 AT TIME STEP  1, STRESS PERIOD  64
 UBDSV1 SAVING "FLOW FRONT FACE " ON UNIT   9 AT TIME STEP  1, STRESS PERIOD  64
 UBDSV1 SAVING "FLOW LOWER FACE " ON UNIT   9 AT TIME STEP  1, STRESS PERIOD  64
 UBDSV3 SAVING "        RECHARGE" ON UNIT   9 AT TIME STEP  1, STRESS PERIOD  64

 HEAD WILL BE SAVED ON UNIT   37 AT END OF TIME STEP    1, STRESS PERIOD   64

 DRAWDOWN WILL BE SAVED ON UNIT   38 AT END OF TIME STEP    1, STRESS PERIOD   64
1
  VOLUMETRIC BUDGET FOR ENTIRE MODEL AT END OF TIME STEP    1, STRESS PERIOD  64
  ------------------------------------------------------------------------------

     CUMULATIVE VOLUMES      L**3       RATES FOR THIS TIME STEP      L**3/T
     ------------------                 ------------------------

           IN:                                      IN:
           ---                                      ---
             STORAGE =       11079.0957               STORAGE =           0.0000
       CONSTANT HEAD =       17241.0547         CONSTANT HEAD =       2.0746E-03
            RECHARGE =         750.0343              RECHARGE =       1.0213E-04

            TOTAL IN =       29070.1855              TOTAL IN =       2.1768E-03

          OUT:                                     OUT:
          ----                                     ----
             STORAGE =        5534.8384               STORAGE =       1.2299E-03
       CONSTANT HEAD =       23536.1562         CONSTANT HEAD =       9.4698E-04
            RECHARGE =           0.0000              RECHARGE =           0.0000

           TOTAL OUT =       29070.9941             TOTAL OUT =       2.1769E-03

            IN - OUT =          -0.8086              IN - OUT =      -8.9640E-08

 PERCENT DISCREPANCY =          -0.00     PERCENT DISCREPANCY =          -0.00






         TIME SUMMARY AT END OF TIME STEP    1 IN STRESS PERIOD   64
                    SECONDS     MINUTES      HOURS       DAYS        YEARS
                    -----------------------------------------------------------
   TIME STEP LENGTH  86400.      1440.0      24.000      1.0000     2.73785E-03
 STRESS PERIOD TIME  86400.      1440.0      24.000      1.0000     2.73785E-03
         TOTAL TIME 7.34400E+06 1.22400E+05  2040.0      85.000     0.23272    
1
1
                            STRESS PERIOD NO.   65, LENGTH =   86400.00    
                            -----------------------------------------------

                              NUMBER OF TIME STEPS =     1

                               MULTIPLIER FOR DELT =     1.000

                            INITIAL TIME STEP SIZE =   86400.00    

 REUSING RECH FROM LAST STRESS PERIOD

 CHD NO.   LAYER   ROW   COL    START HEAD        END HEAD         IFACE           
 ----------------------------------------------------------------------------------
      1      4      3      1       109.4           109.4           0.000    
      2      5      3      1       109.4           109.4           0.000    
      3      4      3      2       109.4           109.4           0.000    
      4      5      3      2       109.4           109.4           0.000    
      5      4      3      3       109.4           109.4           0.000    
      6      5      3      3       109.4           109.4           0.000    
      7      4      3      4       109.4           109.4           0.000    
      8      5      3      4       109.4           109.4           0.000    
      9      4      3      5       109.4           109.4           0.000    
     10      5      3      5       109.4           109.4           0.000    
     11      4      3      6       109.4           109.4           0.000    
     12      5      3      6       109.4           109.4           0.000    
     13      4      3      7       109.4           109.4           0.000    
     14      5      3      7       109.4           109.4           0.000    
     15      4      3      8       109.4           109.4           0.000    
     16      5      3      8       109.4           109.4           0.000    
     17      4      2      8       109.4           109.4           0.000    
     18      5      2      8       109.4           109.4           0.000    
     19      4      2      9       109.4           109.4           0.000    
     20      5      2      9       109.4           109.4           0.000    
     21      4      2     10       109.4           109.4           0.000    
     22      5      2     10       109.4           109.4           0.000    
     23      4      2     11       109.4           109.4           0.000    
     24      5      2     11       109.4           109.4           0.000    
     25      4      2     12       109.4           109.4           0.000    
     26      5      2     12       109.4           109.4           0.000    
     27      4      2     13       109.4           109.4           0.000    
     28      5      2     13       109.4           109.4           0.000    
     29      4      2     14       109.4           109.4           0.000    
     30      5      2     14       109.4           109.4           0.000    
     31      4      2     15       109.4           109.4           0.000    
     32      5      2     15       109.4           109.4           0.000    
     33      4      2     16       109.4           109.4           0.000    
     34      5      2     16       109.4           109.4           0.000    
     35      4      2     17       109.4           109.4           0.000    
     36      5      2     17       109.4           109.4           0.000    
     37      4      2     18       109.4           109.4           0.000    
     38      5      2     18       109.4           109.4           0.000    
     39      4      2     19       109.4           109.4           0.000    
     40      5      2     19       109.4           109.4           0.000    
     41      4      2     20       109.4           109.4           0.000    
     42      5      2     20       109.4           109.4           0.000    
     43      4      2     21       109.4           109.4           0.000    
     44      5      2     21       109.4           109.4           0.000    
     45      4      2     22       109.4           109.4           0.000    
     46      5      2     22       109.4           109.4           0.000    
     47      4      2     23       109.4           109.4           0.000    
     48      5      2     23       109.4           109.4           0.000    
     49      4      2     24       109.4           109.4           0.000    
     50      5      2     24       109.4           109.4           0.000    
     51      4      2     25       109.4           109.4           0.000    
     52      5      2     25       109.4           109.4           0.000    
     53      4      2     26       109.4           109.4           0.000    
     54      5      2     26       109.4           109.4           0.000    
     55      4      1     26       109.4           109.4           0.000    
     56      5      1     26       109.4           109.4           0.000    
     57      4      1     27       109.4           109.4           0.000    
     58      5      1     27       109.4           109.4           0.000    
     59      4      1     28       109.4           109.4           0.000    
     60      5      1     28       109.4           109.4           0.000    
     61      4      1     29       109.4           109.4           0.000    
     62      5      1     29       109.4           109.4           0.000    
     63      4      1     30       109.4           109.4           0.000    
     64      5      1     30       109.4           109.4           0.000    
     65      4      1     31       109.4           109.4           0.000    
     66      5      1     31       109.4           109.4           0.000    
     67      4      1     32       109.4           109.4           0.000    
     68      5      1     32       109.4           109.4           0.000    
     69      4      1     33       109.4           109.4           0.000    
     70      5      1     33       109.4           109.4           0.000    
     71      4      1     34       109.4           109.4           0.000    
     72      5      1     34       109.4           109.4           0.000    
     73      4      1     35       109.4           109.4           0.000    
     74      5      1     35       109.4           109.4           0.000    
     75      4     36     35       109.3           109.2           0.000    
     76      5     36     35       109.3           109.2           0.000    
     77      4     35     34       109.3           109.2           0.000    
     78      5     35     34       109.3           109.2           0.000    
     79      4     36     34       109.3           109.2           0.000    
     80      5     36     34       109.3           109.2           0.000    
     81      4     36     33       109.3           109.2           0.000    
     82      5     36     33       109.3           109.2           0.000    
     83      4     36     32       109.3           109.2           0.000    
     84      5     36     32       109.3           109.2           0.000    
     85      4     37     32       109.3           109.2           0.000    
     86      5     37     32       109.3           109.2           0.000    
     87      4     37     31       109.3           109.2           0.000    
     88      5     37     31       109.3           109.2           0.000    
     89      4     38     31       109.3           109.2           0.000    
     90      5     38     31       109.3           109.2           0.000    
     91      4     38     30       109.2           109.2           0.000    
     92      5     38     30       109.2           109.2           0.000    
     93      4     39     30       109.2           109.2           0.000    
     94      5     39     30       109.2           109.2           0.000    
     95      4     39     29       109.2           109.2           0.000    
     96      5     39     29       109.2           109.2           0.000    
     97      4     40     29       109.2           109.2           0.000    
     98      5     40     29       109.2           109.2           0.000    
     99      4     40     28       109.2           109.2           0.000    
    100      5     40     28       109.2           109.2           0.000    
    101      4     40     27       109.2           109.2           0.000    
    102      5     40     27       109.2           109.2           0.000    
    103      4     41     27       109.2           109.2           0.000    
    104      5     41     27       109.2           109.2           0.000    
    105      4     41     26       109.2           109.2           0.000    
    106      5     41     26       109.2           109.2           0.000    
    107      4     41     25       109.2           109.2           0.000    
    108      5     41     25       109.2           109.2           0.000    
    109      4     41     24       109.2           109.2           0.000    
    110      5     41     24       109.2           109.2           0.000    
    111      4     41     23       109.2           109.2           0.000    
    112      5     41     23       109.2           109.2           0.000    
    113      4     41     22       109.2           109.2           0.000    
    114      5     41     22       109.2           109.2           0.000    
    115      4     42     22       109.2           109.2           0.000    
    116      5     42     22       109.2           109.2           0.000    
    117      4     42     21       109.2           109.2           0.000    
    118      5     42     21       109.2           109.2           0.000    
    119      4     42     20       109.2           109.2           0.000    
    120      5     42     20       109.2           109.2           0.000    
    121      4     42     19       109.2           109.2           0.000    
    122      5     42     19       109.2           109.2           0.000    
    123      4     43     18       109.2           109.2           0.000    
    124      5     43     18       109.2           109.2           0.000    
    125      4     42     18       109.2           109.2           0.000    
    126      5     42     18       109.2           109.2           0.000    
    127      4     42     17       109.2           109.2           0.000    
    128      5     42     17       109.2           109.2           0.000    
    129      4     42     16       109.2           109.2           0.000    
    130      5     42     16       109.2           109.2           0.000    
    131      4     42     15       109.2           109.2           0.000    
    132      5     42     15       109.2           109.2           0.000    
    133      4     43     15       109.2           109.2           0.000    
    134      5     43     15       109.2           109.2           0.000    
    135      4     43     14       109.2           109.2           0.000    
    136      5     43     14       109.2           109.2           0.000    
    137      4     43     13       109.2           109.2           0.000    
    138      5     43     13       109.2           109.2           0.000    
    139      4     43     12       109.2           109.2           0.000    
    140      5     43     12       109.2           109.2           0.000    
    141      4     43     11       109.2           109.2           0.000    
    142      5     43     11       109.2           109.2           0.000    
    143      4     43     10       109.2           109.2           0.000    
    144      5     43     10       109.2           109.2           0.000    
    145      4     44     10       109.2           109.2           0.000    
    146      5     44     10       109.2           109.2           0.000    
    147      4     44      9       109.2           109.2           0.000    
    148      5     44      9       109.2           109.2           0.000    
    149      4     44      8       109.2           109.2           0.000    
    150      5     44      8       109.2           109.2           0.000    
    151      4     44      7       109.2           109.2           0.000    
    152      5     44      7       109.2           109.2           0.000    
    153      4     44      6       109.2           109.2           0.000    
    154      5     44      6       109.2           109.2           0.000    
    155      4     44      5       109.2           109.2           0.000    
    156      5     44      5       109.2           109.2           0.000    
    157      4     44      4       109.2           109.2           0.000    
    158      5     44      4       109.2           109.2           0.000    
    159      4     44      3       109.2           109.2           0.000    
    160      5     44      3       109.2           109.2           0.000    
    161      4     45      3       109.2           109.2           0.000    
    162      5     45      3       109.2           109.2           0.000    
    163      4     45      2       109.2           109.2           0.000    
    164      5     45      2       109.2           109.2           0.000    
    165      4     45      1       109.2           109.2           0.000    
    166      5     45      1       109.2           109.2           0.000    


    166 TIME-VARIANT SPECIFIED-HEAD CELLS

 SOLVING FOR HEAD 


     3 CALLS TO PCG ROUTINE FOR TIME STEP   1 IN STRESS PERIOD   65
    47 TOTAL ITERATIONS

 MAXIMUM HEAD CHANGE FOR EACH ITERATION (1 INDICATES THE FIRST INNER ITERATION):

    HEAD CHANGE    HEAD CHANGE    HEAD CHANGE    HEAD CHANGE    HEAD CHANGE 
   LAYER,ROW,COL  LAYER,ROW,COL  LAYER,ROW,COL  LAYER,ROW,COL  LAYER,ROW,COL
 ---------------------------------------------------------------------------
  1 -0.2109E-01  0 -0.1698E-01  0  0.1440E-01  0 -0.1716E-01  0  0.1158E-01
   (  5, 43,  5)  (  5, 31,  1)  (  5, 41,  1)  (  5, 39,  1)  (  5, 37,  1)
  0 -0.6013E-02  0  0.4754E-02  0  0.3497E-02  0  0.2844E-02  0  0.2213E-02
   (  5, 35,  2)  (  5, 32,  1)  (  5, 25,  4)  (  5, 40,  1)  (  5, 18,  1)
  0  0.1339E-02  0  0.1086E-02  0 -0.1005E-02  0  0.6921E-03  0  0.4506E-03
   (  5, 23,  1)  (  5, 42,  1)  (  5, 28, 10)  (  5, 24, 11)  (  5, 28,  9)
  0 -0.3531E-03  0  0.3119E-03  0 -0.1855E-03  0 -0.2022E-03  0  0.1809E-03
   (  5, 14,  1)  (  5, 14,  1)  (  5, 32,  1)  (  5, 13,  1)  (  5, 12,  1)
  0  0.9949E-04  0 -0.6832E-04  0  0.5788E-04  0  0.5035E-04  0 -0.4298E-04
   (  5, 37,  1)  (  5, 35,  1)  (  5, 36,  3)  (  5, 39,  1)  (  5, 41,  2)
  0  0.1665E-04  0  0.1618E-04  0  0.1493E-04  0 -0.6851E-05  0  0.9853E-05
   (  5, 18,  1)  (  5, 40,  1)  (  5, 36,  1)  (  5, 19,  1)  (  5, 41,  2)
  1  0.3196E-04  0  0.4884E-04  0  0.5146E-04  0  0.3161E-04  0  0.2364E-04
   (  3, 18,  8)  (  3, 18,  8)  (  3, 18,  8)  (  3, 18,  8)  (  3, 18,  8)
  0  0.1214E-04  0  0.9174E-05  0 -0.9063E-05  0  0.8253E-05  0 -0.4651E-05
   (  5, 24,  1)  (  5, 35,  1)  (  5, 37,  1)  (  5, 39,  1)  (  5, 41,  2)
  0  0.3821E-05  0 -0.3283E-05  0  0.2871E-05  0  0.1332E-05  0  0.1328E-05
   (  5, 39,  1)  (  5, 14,  1)  (  5, 15,  1)  (  5, 34,  8)  (  5, 13,  1)
  0 -0.6731E-06  1 -0.5791E-06
   (  5, 14,  2)  (  5, 30,  1)

 MAXIMUM RESIDUAL FOR EACH ITERATION (1 INDICATES THE FIRST INNER ITERATION):

    RESIDUAL       RESIDUAL       RESIDUAL       RESIDUAL       RESIDUAL    
   LAYER,ROW,COL  LAYER,ROW,COL  LAYER,ROW,COL  LAYER,ROW,COL  LAYER,ROW,COL
 ---------------------------------------------------------------------------
  1  0.8905E-04  0 -0.7161E-04  0 -0.5203E-04  0 -0.3882E-04  0 -0.3898E-04
   (  4, 44,  2)  (  3,  3,  1)  (  3,  3,  1)  (  4, 43,  6)  (  4, 43,  6)
  0 -0.3346E-04  0 -0.2735E-04  0 -0.2210E-04  0 -0.1802E-04  0 -0.1597E-04
   (  4, 43,  6)  (  4, 43,  6)  (  4, 43,  4)  (  4, 44,  2)  (  4, 44,  2)
  0 -0.1254E-04  0 -0.9556E-05  0 -0.6634E-05  0 -0.4378E-05  0 -0.3004E-05
   (  4, 44,  2)  (  4, 44,  2)  (  4, 44,  2)  (  4, 44,  2)  (  4, 44,  2)
  0 -0.2281E-05  0 -0.1792E-05  0 -0.1612E-05  0 -0.1305E-05  0 -0.1004E-05
   (  4, 34, 35)  (  4, 34, 35)  (  4, 34, 35)  (  4, 34, 35)  (  4, 34, 35)
  0 -0.7266E-06  0 -0.6314E-06  0 -0.4688E-06  0 -0.3321E-06  0 -0.2369E-06
   (  4, 34, 35)  (  4, 34, 35)  (  4, 34, 35)  (  4, 34, 35)  (  4, 34, 35)
  0 -0.1510E-06  0  0.1037E-06  0  0.7789E-07  0  0.6363E-07  0  0.4854E-07
   (  4, 34, 35)  (  3,  3,  2)  (  3,  3,  2)  (  3,  3,  2)  (  3,  3,  2)
  1 -0.2895E-06  0 -0.2245E-06  0 -0.1459E-06  0 -0.9075E-07  0 -0.5015E-07
   (  3, 18,  8)  (  3, 18,  8)  (  3, 18,  8)  (  3, 18,  8)  (  3, 18,  8)
  0 -0.3090E-07  0  0.2597E-07  0 -0.2299E-07  0 -0.2650E-07  0 -0.2117E-07
   (  3, 18,  8)  (  4, 18,  8)  (  4, 18,  7)  (  4, 18,  7)  (  4, 17,  8)
  0 -0.1607E-07  0 -0.1283E-07  0 -0.9561E-08  0 -0.5459E-08  0 -0.3933E-08
   (  4, 17,  8)  (  4, 17,  8)  (  4, 17,  8)  (  4, 17,  8)  (  4, 17,  8)
  0 -0.2944E-08  1  0.2872E-08
   (  4, 17,  8)  (  3, 18,  8)



 OUTPUT CONTROL FOR STRESS PERIOD   65   TIME STEP    1
    SAVE HEAD FOR ALL LAYERS
    SAVE DRAWDOWN FOR ALL LAYERS
    SAVE BUDGET
    PRINT BUDGET
 UBDSV1 SAVING "         STORAGE" ON UNIT   9 AT TIME STEP  1, STRESS PERIOD  65
 UBDSV2 SAVING "   CONSTANT HEAD" ON UNIT   9 AT TIME STEP  1, STRESS PERIOD  65
 UBDSV1 SAVING "FLOW RIGHT FACE " ON UNIT   9 AT TIME STEP  1, STRESS PERIOD  65
 UBDSV1 SAVING "FLOW FRONT FACE " ON UNIT   9 AT TIME STEP  1, STRESS PERIOD  65
 UBDSV1 SAVING "FLOW LOWER FACE " ON UNIT   9 AT TIME STEP  1, STRESS PERIOD  65
 UBDSV3 SAVING "        RECHARGE" ON UNIT   9 AT TIME STEP  1, STRESS PERIOD  65

 HEAD WILL BE SAVED ON UNIT   37 AT END OF TIME STEP    1, STRESS PERIOD   65

 DRAWDOWN WILL BE SAVED ON UNIT   38 AT END OF TIME STEP    1, STRESS PERIOD   65
1
  VOLUMETRIC BUDGET FOR ENTIRE MODEL AT END OF TIME STEP    1, STRESS PERIOD  65
  ------------------------------------------------------------------------------

     CUMULATIVE VOLUMES      L**3       RATES FOR THIS TIME STEP      L**3/T
     ------------------                 ------------------------

           IN:                                      IN:
           ---                                      ---
             STORAGE =       11080.2695               STORAGE =       1.3588E-05
       CONSTANT HEAD =       17420.1055         CONSTANT HEAD =       2.0723E-03
            RECHARGE =         758.8582              RECHARGE =       1.0213E-04

            TOTAL IN =       29259.2324              TOTAL IN =       2.1881E-03

          OUT:                                     OUT:
          ----                                     ----
             STORAGE =        5563.6777               STORAGE =       3.3379E-04
       CONSTANT HEAD =       23696.3730         CONSTANT HEAD =       1.8544E-03
            RECHARGE =           0.0000              RECHARGE =           0.0000

           TOTAL OUT =       29260.0508             TOTAL OUT =       2.1881E-03

            IN - OUT =          -0.8184              IN - OUT =      -8.4750E-08

 PERCENT DISCREPANCY =          -0.00     PERCENT DISCREPANCY =          -0.00






         TIME SUMMARY AT END OF TIME STEP    1 IN STRESS PERIOD   65
                    SECONDS     MINUTES      HOURS       DAYS        YEARS
                    -----------------------------------------------------------
   TIME STEP LENGTH  86400.      1440.0      24.000      1.0000     2.73785E-03
 STRESS PERIOD TIME  86400.      1440.0      24.000      1.0000     2.73785E-03
         TOTAL TIME 7.43040E+06 1.23840E+05  2064.0      86.000     0.23546    
1
1
                            STRESS PERIOD NO.   66, LENGTH =   86400.00    
                            -----------------------------------------------

                              NUMBER OF TIME STEPS =     1

                               MULTIPLIER FOR DELT =     1.000

                            INITIAL TIME STEP SIZE =   86400.00    

 REUSING RECH FROM LAST STRESS PERIOD

 CHD NO.   LAYER   ROW   COL    START HEAD        END HEAD         IFACE           
 ----------------------------------------------------------------------------------
      1      4      3      1       109.4           109.4           0.000    
      2      5      3      1       109.4           109.4           0.000    
      3      4      3      2       109.4           109.4           0.000    
      4      5      3      2       109.4           109.4           0.000    
      5      4      3      3       109.4           109.4           0.000    
      6      5      3      3       109.4           109.4           0.000    
      7      4      3      4       109.4           109.4           0.000    
      8      5      3      4       109.4           109.4           0.000    
      9      4      3      5       109.4           109.4           0.000    
     10      5      3      5       109.4           109.4           0.000    
     11      4      3      6       109.4           109.4           0.000    
     12      5      3      6       109.4           109.4           0.000    
     13      4      3      7       109.4           109.4           0.000    
     14      5      3      7       109.4           109.4           0.000    
     15      4      3      8       109.4           109.4           0.000    
     16      5      3      8       109.4           109.4           0.000    
     17      4      2      8       109.4           109.4           0.000    
     18      5      2      8       109.4           109.4           0.000    
     19      4      2      9       109.4           109.4           0.000    
     20      5      2      9       109.4           109.4           0.000    
     21      4      2     10       109.4           109.4           0.000    
     22      5      2     10       109.4           109.4           0.000    
     23      4      2     11       109.4           109.4           0.000    
     24      5      2     11       109.4           109.4           0.000    
     25      4      2     12       109.4           109.4           0.000    
     26      5      2     12       109.4           109.4           0.000    
     27      4      2     13       109.4           109.4           0.000    
     28      5      2     13       109.4           109.4           0.000    
     29      4      2     14       109.4           109.4           0.000    
     30      5      2     14       109.4           109.4           0.000    
     31      4      2     15       109.4           109.4           0.000    
     32      5      2     15       109.4           109.4           0.000    
     33      4      2     16       109.4           109.4           0.000    
     34      5      2     16       109.4           109.4           0.000    
     35      4      2     17       109.4           109.4           0.000    
     36      5      2     17       109.4           109.4           0.000    
     37      4      2     18       109.4           109.4           0.000    
     38      5      2     18       109.4           109.4           0.000    
     39      4      2     19       109.4           109.4           0.000    
     40      5      2     19       109.4           109.4           0.000    
     41      4      2     20       109.4           109.4           0.000    
     42      5      2     20       109.4           109.4           0.000    
     43      4      2     21       109.4           109.4           0.000    
     44      5      2     21       109.4           109.4           0.000    
     45      4      2     22       109.4           109.4           0.000    
     46      5      2     22       109.4           109.4           0.000    
     47      4      2     23       109.4           109.4           0.000    
     48      5      2     23       109.4           109.4           0.000    
     49      4      2     24       109.4           109.4           0.000    
     50      5      2     24       109.4           109.4           0.000    
     51      4      2     25       109.4           109.4           0.000    
     52      5      2     25       109.4           109.4           0.000    
     53      4      2     26       109.4           109.4           0.000    
     54      5      2     26       109.4           109.4           0.000    
     55      4      1     26       109.4           109.4           0.000    
     56      5      1     26       109.4           109.4           0.000    
     57      4      1     27       109.4           109.4           0.000    
     58      5      1     27       109.4           109.4           0.000    
     59      4      1     28       109.4           109.4           0.000    
     60      5      1     28       109.4           109.4           0.000    
     61      4      1     29       109.4           109.4           0.000    
     62      5      1     29       109.4           109.4           0.000    
     63      4      1     30       109.4           109.4           0.000    
     64      5      1     30       109.4           109.4           0.000    
     65      4      1     31       109.4           109.4           0.000    
     66      5      1     31       109.4           109.4           0.000    
     67      4      1     32       109.4           109.4           0.000    
     68      5      1     32       109.4           109.4           0.000    
     69      4      1     33       109.4           109.4           0.000    
     70      5      1     33       109.4           109.4           0.000    
     71      4      1     34       109.4           109.4           0.000    
     72      5      1     34       109.4           109.4           0.000    
     73      4      1     35       109.4           109.4           0.000    
     74      5      1     35       109.4           109.4           0.000    
     75      4     36     35       109.2           109.3           0.000    
     76      5     36     35       109.2           109.3           0.000    
     77      4     35     34       109.2           109.3           0.000    
     78      5     35     34       109.2           109.3           0.000    
     79      4     36     34       109.2           109.3           0.000    
     80      5     36     34       109.2           109.3           0.000    
     81      4     36     33       109.2           109.3           0.000    
     82      5     36     33       109.2           109.3           0.000    
     83      4     36     32       109.2           109.3           0.000    
     84      5     36     32       109.2           109.3           0.000    
     85      4     37     32       109.2           109.3           0.000    
     86      5     37     32       109.2           109.3           0.000    
     87      4     37     31       109.2           109.3           0.000    
     88      5     37     31       109.2           109.3           0.000    
     89      4     38     31       109.2           109.3           0.000    
     90      5     38     31       109.2           109.3           0.000    
     91      4     38     30       109.2           109.3           0.000    
     92      5     38     30       109.2           109.3           0.000    
     93      4     39     30       109.2           109.3           0.000    
     94      5     39     30       109.2           109.3           0.000    
     95      4     39     29       109.2           109.3           0.000    
     96      5     39     29       109.2           109.3           0.000    
     97      4     40     29       109.2           109.3           0.000    
     98      5     40     29       109.2           109.3           0.000    
     99      4     40     28       109.2           109.3           0.000    
    100      5     40     28       109.2           109.3           0.000    
    101      4     40     27       109.2           109.3           0.000    
    102      5     40     27       109.2           109.3           0.000    
    103      4     41     27       109.2           109.3           0.000    
    104      5     41     27       109.2           109.3           0.000    
    105      4     41     26       109.2           109.3           0.000    
    106      5     41     26       109.2           109.3           0.000    
    107      4     41     25       109.2           109.3           0.000    
    108      5     41     25       109.2           109.3           0.000    
    109      4     41     24       109.2           109.3           0.000    
    110      5     41     24       109.2           109.3           0.000    
    111      4     41     23       109.2           109.3           0.000    
    112      5     41     23       109.2           109.3           0.000    
    113      4     41     22       109.2           109.3           0.000    
    114      5     41     22       109.2           109.3           0.000    
    115      4     42     22       109.2           109.3           0.000    
    116      5     42     22       109.2           109.3           0.000    
    117      4     42     21       109.2           109.3           0.000    
    118      5     42     21       109.2           109.3           0.000    
    119      4     42     20       109.2           109.3           0.000    
    120      5     42     20       109.2           109.3           0.000    
    121      4     42     19       109.2           109.3           0.000    
    122      5     42     19       109.2           109.3           0.000    
    123      4     43     18       109.2           109.3           0.000    
    124      5     43     18       109.2           109.3           0.000    
    125      4     42     18       109.2           109.3           0.000    
    126      5     42     18       109.2           109.3           0.000    
    127      4     42     17       109.2           109.3           0.000    
    128      5     42     17       109.2           109.3           0.000    
    129      4     42     16       109.2           109.3           0.000    
    130      5     42     16       109.2           109.3           0.000    
    131      4     42     15       109.2           109.3           0.000    
    132      5     42     15       109.2           109.3           0.000    
    133      4     43     15       109.2           109.3           0.000    
    134      5     43     15       109.2           109.3           0.000    
    135      4     43     14       109.2           109.3           0.000    
    136      5     43     14       109.2           109.3           0.000    
    137      4     43     13       109.2           109.3           0.000    
    138      5     43     13       109.2           109.3           0.000    
    139      4     43     12       109.2           109.3           0.000    
    140      5     43     12       109.2           109.3           0.000    
    141      4     43     11       109.2           109.3           0.000    
    142      5     43     11       109.2           109.3           0.000    
    143      4     43     10       109.2           109.3           0.000    
    144      5     43     10       109.2           109.3           0.000    
    145      4     44     10       109.2           109.3           0.000    
    146      5     44     10       109.2           109.3           0.000    
    147      4     44      9       109.2           109.3           0.000    
    148      5     44      9       109.2           109.3           0.000    
    149      4     44      8       109.2           109.3           0.000    
    150      5     44      8       109.2           109.3           0.000    
    151      4     44      7       109.2           109.3           0.000    
    152      5     44      7       109.2           109.3           0.000    
    153      4     44      6       109.2           109.3           0.000    
    154      5     44      6       109.2           109.3           0.000    
    155      4     44      5       109.2           109.3           0.000    
    156      5     44      5       109.2           109.3           0.000    
    157      4     44      4       109.2           109.3           0.000    
    158      5     44      4       109.2           109.3           0.000    
    159      4     44      3       109.2           109.3           0.000    
    160      5     44      3       109.2           109.3           0.000    
    161      4     45      3       109.2           109.3           0.000    
    162      5     45      3       109.2           109.3           0.000    
    163      4     45      2       109.2           109.3           0.000    
    164      5     45      2       109.2           109.3           0.000    
    165      4     45      1       109.2           109.3           0.000    
    166      5     45      1       109.2           109.3           0.000    


    166 TIME-VARIANT SPECIFIED-HEAD CELLS

 SOLVING FOR HEAD 


     3 CALLS TO PCG ROUTINE FOR TIME STEP   1 IN STRESS PERIOD   66
    57 TOTAL ITERATIONS

 MAXIMUM HEAD CHANGE FOR EACH ITERATION (1 INDICATES THE FIRST INNER ITERATION):

    HEAD CHANGE    HEAD CHANGE    HEAD CHANGE    HEAD CHANGE    HEAD CHANGE 
   LAYER,ROW,COL  LAYER,ROW,COL  LAYER,ROW,COL  LAYER,ROW,COL  LAYER,ROW,COL
 ---------------------------------------------------------------------------
  1  0.2968      0 -0.1380      0 -0.1062      0  0.1306      0 -0.9690E-01
   (  5, 43,  5)  (  5, 40,  1)  (  5, 42,  1)  (  5, 38,  1)  (  5, 35,  1)
  0  0.6057E-01  0  0.3859E-01  0 -0.2582E-01  0  0.2587E-01  0 -0.2058E-01
   (  5, 32,  2)  (  5, 41,  6)  (  5, 40,  1)  (  5, 37,  1)  (  5, 40,  5)
  0  0.1512E-01  0 -0.1033E-01  0  0.7740E-02  0  0.6771E-02  0 -0.5047E-02
   (  5, 39,  1)  (  5, 42,  1)  (  5, 40,  1)  (  5, 37,  8)  (  5, 35,  8)
  0  0.3838E-02  0  0.2205E-02  0 -0.2151E-02  0  0.1611E-02  0  0.1375E-02
   (  5, 14,  1)  (  5, 38,  1)  (  5, 34,  1)  (  5, 13,  1)  (  5, 39,  1)
  0 -0.9410E-03  0  0.8355E-03  0  0.5795E-03  0 -0.4683E-03  0  0.3050E-03
   (  5, 37,  1)  (  5, 35,  1)  (  5, 13,  1)  (  5, 12,  1)  (  5, 37,  1)
  0 -0.2128E-03  0  0.2148E-03  0 -0.1233E-03  0  0.1092E-03  0  0.7307E-04
   (  5, 39,  2)  (  5, 38,  1)  (  5, 40,  1)  (  5, 35,  6)  (  5, 34,  1)
  1 -0.1801E-03  0  0.4156E-03  0  0.2132E-03  0  0.2759E-03  0 -0.1578E-03
   (  5, 27,  1)  (  5, 28,  1)  (  3, 28,  7)  (  5, 34,  1)  (  5, 35,  1)
  0  0.1623E-03  0  0.8730E-04  0  0.8343E-04  0 -0.6084E-04  0 -0.4612E-04
   (  5, 38,  2)  (  5, 20,  1)  (  5, 30,  1)  (  5, 36,  6)  (  5, 33, 12)
  0 -0.3990E-04  0  0.2895E-04  0  0.2753E-04  0 -0.1872E-04  0  0.1513E-04
   (  5, 33,  1)  (  5, 29,  9)  (  5, 34,  9)  (  5, 32,  9)  (  5, 31,  4)
  0 -0.9317E-05  0  0.8901E-05  0 -0.6402E-05  0 -0.4706E-05  0  0.3611E-05
   (  5, 28,  1)  (  5, 34,  2)  (  5, 33,  1)  (  5, 12,  1)  (  5, 41,  1)
  0 -0.2660E-05  0  0.2049E-05  0 -0.1704E-05  0  0.1068E-05  0  0.1032E-05
   (  5, 40,  2)  (  5, 38,  3)  (  5, 35,  3)  (  5, 13,  2)  (  5, 39,  2)
  0  0.6970E-06  1  0.6126E-06
   (  5, 28,  1)  (  5, 36,  1)

 MAXIMUM RESIDUAL FOR EACH ITERATION (1 INDICATES THE FIRST INNER ITERATION):

    RESIDUAL       RESIDUAL       RESIDUAL       RESIDUAL       RESIDUAL    
   LAYER,ROW,COL  LAYER,ROW,COL  LAYER,ROW,COL  LAYER,ROW,COL  LAYER,ROW,COL
 ---------------------------------------------------------------------------
  1 -0.1053E-02  0 -0.8277E-03  0 -0.6816E-03  0 -0.5504E-03  0 -0.4703E-03
   (  4, 44,  2)  (  4, 35, 35)  (  4, 35, 35)  (  3, 40, 27)  (  3, 40, 27)
  0 -0.3837E-03  0 -0.2995E-03  0 -0.2383E-03  0  0.1793E-03  0  0.1428E-03
   (  3, 40, 27)  (  3, 40, 27)  (  3, 40, 27)  (  3, 35, 35)  (  3, 35, 35)
  0  0.1105E-03  0  0.8115E-04  0  0.5684E-04  0  0.4421E-04  0  0.3589E-04
   (  3, 35, 35)  (  3, 35, 35)  (  4, 43,  4)  (  4, 34, 35)  (  4, 34, 35)
  0  0.2857E-04  0  0.2417E-04  0  0.2132E-04  0  0.1675E-04  0  0.1286E-04
   (  4, 34, 35)  (  4, 34, 35)  (  4, 34, 35)  (  4, 34, 35)  (  4, 34, 35)
  0  0.1142E-04  0  0.8968E-05  0  0.6669E-05  0  0.4729E-05  0  0.3407E-05
   (  4, 34, 35)  (  4, 34, 35)  (  4, 34, 35)  (  4, 34, 35)  (  4, 34, 35)
  0  0.2840E-05  0  0.2091E-05  0 -0.1467E-05  0 -0.1067E-05  0 -0.8330E-06
   (  4, 34, 35)  (  4, 34, 35)  (  4, 35, 35)  (  4, 35, 35)  (  4, 35, 35)
  1 -0.2435E-05  0 -0.1728E-05  0 -0.8534E-06  0 -0.6814E-06  0 -0.5986E-06
   (  3, 41,  4)  (  3, 41,  4)  (  3, 41,  4)  (  4, 43,  2)  (  4, 43,  2)
  0 -0.5506E-06  0 -0.4939E-06  0 -0.4444E-06  0 -0.4165E-06  0 -0.3721E-06
   (  4, 43,  2)  (  4, 43,  1)  (  4, 43,  1)  (  4, 44,  1)  (  4, 44,  1)
  0 -0.3147E-06  0 -0.2575E-06  0 -0.1920E-06  0  0.1388E-06  0  0.9933E-07
   (  4, 44,  1)  (  4, 44,  1)  (  4, 44,  1)  (  4, 43,  4)  (  4, 44,  2)
  0  0.9579E-07  0  0.9023E-07  0  0.7665E-07  0  0.6154E-07  0  0.4566E-07
   (  4, 44,  2)  (  4, 44,  2)  (  4, 44,  2)  (  4, 44,  2)  (  4, 44,  2)
  0  0.3627E-07  0  0.3030E-07  0  0.2174E-07  0  0.1549E-07  0  0.1081E-07
   (  4, 44,  2)  (  4, 44,  2)  (  4, 44,  2)  (  4, 44,  2)  (  4, 44,  2)
  0  0.8270E-08  1  0.7907E-08
   (  4, 44,  2)  (  4, 44,  2)



 OUTPUT CONTROL FOR STRESS PERIOD   66   TIME STEP    1
    SAVE HEAD FOR ALL LAYERS
    SAVE DRAWDOWN FOR ALL LAYERS
    SAVE BUDGET
    PRINT BUDGET
 UBDSV1 SAVING "         STORAGE" ON UNIT   9 AT TIME STEP  1, STRESS PERIOD  66
 UBDSV2 SAVING "   CONSTANT HEAD" ON UNIT   9 AT TIME STEP  1, STRESS PERIOD  66
 UBDSV1 SAVING "FLOW RIGHT FACE " ON UNIT   9 AT TIME STEP  1, STRESS PERIOD  66
 UBDSV1 SAVING "FLOW FRONT FACE " ON UNIT   9 AT TIME STEP  1, STRESS PERIOD  66
 UBDSV1 SAVING "FLOW LOWER FACE " ON UNIT   9 AT TIME STEP  1, STRESS PERIOD  66
 UBDSV3 SAVING "        RECHARGE" ON UNIT   9 AT TIME STEP  1, STRESS PERIOD  66

 HEAD WILL BE SAVED ON UNIT   37 AT END OF TIME STEP    1, STRESS PERIOD   66

 DRAWDOWN WILL BE SAVED ON UNIT   38 AT END OF TIME STEP    1, STRESS PERIOD   66
1
  VOLUMETRIC BUDGET FOR ENTIRE MODEL AT END OF TIME STEP    1, STRESS PERIOD  66
  ------------------------------------------------------------------------------

     CUMULATIVE VOLUMES      L**3       RATES FOR THIS TIME STEP      L**3/T
     ------------------                 ------------------------

           IN:                                      IN:
           ---                                      ---
             STORAGE =       11080.2695               STORAGE =           0.0000
       CONSTANT HEAD =       17612.5312         CONSTANT HEAD =       2.2271E-03
            RECHARGE =         767.6821              RECHARGE =       1.0213E-04

            TOTAL IN =       29460.4824              TOTAL IN =       2.3293E-03

          OUT:                                     OUT:
          ----                                     ----
             STORAGE =        5754.5493               STORAGE =       2.2092E-03
       CONSTANT HEAD =       23706.7578         CONSTANT HEAD =       1.2019E-04
            RECHARGE =           0.0000              RECHARGE =           0.0000

           TOTAL OUT =       29461.3066             TOTAL OUT =       2.3293E-03

            IN - OUT =          -0.8242              IN - OUT =      -7.4273E-08

 PERCENT DISCREPANCY =          -0.00     PERCENT DISCREPANCY =          -0.00






         TIME SUMMARY AT END OF TIME STEP    1 IN STRESS PERIOD   66
                    SECONDS     MINUTES      HOURS       DAYS        YEARS
                    -----------------------------------------------------------
   TIME STEP LENGTH  86400.      1440.0      24.000      1.0000     2.73785E-03
 STRESS PERIOD TIME  86400.      1440.0      24.000      1.0000     2.73785E-03
         TOTAL TIME 7.51680E+06 1.25280E+05  2088.0      87.000     0.23819    
1
1
                            STRESS PERIOD NO.   67, LENGTH =   86400.00    
                            -----------------------------------------------

                              NUMBER OF TIME STEPS =     1

                               MULTIPLIER FOR DELT =     1.000

                            INITIAL TIME STEP SIZE =   86400.00    

 REUSING RECH FROM LAST STRESS PERIOD

 CHD NO.   LAYER   ROW   COL    START HEAD        END HEAD         IFACE           
 ----------------------------------------------------------------------------------
      1      4      3      1       109.4           109.4           0.000    
      2      5      3      1       109.4           109.4           0.000    
      3      4      3      2       109.4           109.4           0.000    
      4      5      3      2       109.4           109.4           0.000    
      5      4      3      3       109.4           109.4           0.000    
      6      5      3      3       109.4           109.4           0.000    
      7      4      3      4       109.4           109.4           0.000    
      8      5      3      4       109.4           109.4           0.000    
      9      4      3      5       109.4           109.4           0.000    
     10      5      3      5       109.4           109.4           0.000    
     11      4      3      6       109.4           109.4           0.000    
     12      5      3      6       109.4           109.4           0.000    
     13      4      3      7       109.4           109.4           0.000    
     14      5      3      7       109.4           109.4           0.000    
     15      4      3      8       109.4           109.4           0.000    
     16      5      3      8       109.4           109.4           0.000    
     17      4      2      8       109.4           109.4           0.000    
     18      5      2      8       109.4           109.4           0.000    
     19      4      2      9       109.4           109.4           0.000    
     20      5      2      9       109.4           109.4           0.000    
     21      4      2     10       109.4           109.4           0.000    
     22      5      2     10       109.4           109.4           0.000    
     23      4      2     11       109.4           109.4           0.000    
     24      5      2     11       109.4           109.4           0.000    
     25      4      2     12       109.4           109.4           0.000    
     26      5      2     12       109.4           109.4           0.000    
     27      4      2     13       109.4           109.4           0.000    
     28      5      2     13       109.4           109.4           0.000    
     29      4      2     14       109.4           109.4           0.000    
     30      5      2     14       109.4           109.4           0.000    
     31      4      2     15       109.4           109.4           0.000    
     32      5      2     15       109.4           109.4           0.000    
     33      4      2     16       109.4           109.4           0.000    
     34      5      2     16       109.4           109.4           0.000    
     35      4      2     17       109.4           109.4           0.000    
     36      5      2     17       109.4           109.4           0.000    
     37      4      2     18       109.4           109.4           0.000    
     38      5      2     18       109.4           109.4           0.000    
     39      4      2     19       109.4           109.4           0.000    
     40      5      2     19       109.4           109.4           0.000    
     41      4      2     20       109.4           109.4           0.000    
     42      5      2     20       109.4           109.4           0.000    
     43      4      2     21       109.4           109.4           0.000    
     44      5      2     21       109.4           109.4           0.000    
     45      4      2     22       109.4           109.4           0.000    
     46      5      2     22       109.4           109.4           0.000    
     47      4      2     23       109.4           109.4           0.000    
     48      5      2     23       109.4           109.4           0.000    
     49      4      2     24       109.4           109.4           0.000    
     50      5      2     24       109.4           109.4           0.000    
     51      4      2     25       109.4           109.4           0.000    
     52      5      2     25       109.4           109.4           0.000    
     53      4      2     26       109.4           109.4           0.000    
     54      5      2     26       109.4           109.4           0.000    
     55      4      1     26       109.4           109.4           0.000    
     56      5      1     26       109.4           109.4           0.000    
     57      4      1     27       109.4           109.4           0.000    
     58      5      1     27       109.4           109.4           0.000    
     59      4      1     28       109.4           109.4           0.000    
     60      5      1     28       109.4           109.4           0.000    
     61      4      1     29       109.4           109.4           0.000    
     62      5      1     29       109.4           109.4           0.000    
     63      4      1     30       109.4           109.4           0.000    
     64      5      1     30       109.4           109.4           0.000    
     65      4      1     31       109.4           109.4           0.000    
     66      5      1     31       109.4           109.4           0.000    
     67      4      1     32       109.4           109.4           0.000    
     68      5      1     32       109.4           109.4           0.000    
     69      4      1     33       109.4           109.4           0.000    
     70      5      1     33       109.4           109.4           0.000    
     71      4      1     34       109.4           109.4           0.000    
     72      5      1     34       109.4           109.4           0.000    
     73      4      1     35       109.4           109.4           0.000    
     74      5      1     35       109.4           109.4           0.000    
     75      4     36     35       109.3           109.4           0.000    
     76      5     36     35       109.3           109.4           0.000    
     77      4     35     34       109.3           109.4           0.000    
     78      5     35     34       109.3           109.4           0.000    
     79      4     36     34       109.3           109.4           0.000    
     80      5     36     34       109.3           109.4           0.000    
     81      4     36     33       109.3           109.4           0.000    
     82      5     36     33       109.3           109.4           0.000    
     83      4     36     32       109.3           109.4           0.000    
     84      5     36     32       109.3           109.4           0.000    
     85      4     37     32       109.3           109.4           0.000    
     86      5     37     32       109.3           109.4           0.000    
     87      4     37     31       109.3           109.4           0.000    
     88      5     37     31       109.3           109.4           0.000    
     89      4     38     31       109.3           109.4           0.000    
     90      5     38     31       109.3           109.4           0.000    
     91      4     38     30       109.3           109.4           0.000    
     92      5     38     30       109.3           109.4           0.000    
     93      4     39     30       109.3           109.4           0.000    
     94      5     39     30       109.3           109.4           0.000    
     95      4     39     29       109.3           109.4           0.000    
     96      5     39     29       109.3           109.4           0.000    
     97      4     40     29       109.3           109.4           0.000    
     98      5     40     29       109.3           109.4           0.000    
     99      4     40     28       109.3           109.4           0.000    
    100      5     40     28       109.3           109.4           0.000    
    101      4     40     27       109.3           109.4           0.000    
    102      5     40     27       109.3           109.4           0.000    
    103      4     41     27       109.3           109.4           0.000    
    104      5     41     27       109.3           109.4           0.000    
    105      4     41     26       109.3           109.4           0.000    
    106      5     41     26       109.3           109.4           0.000    
    107      4     41     25       109.3           109.4           0.000    
    108      5     41     25       109.3           109.4           0.000    
    109      4     41     24       109.3           109.4           0.000    
    110      5     41     24       109.3           109.4           0.000    
    111      4     41     23       109.3           109.4           0.000    
    112      5     41     23       109.3           109.4           0.000    
    113      4     41     22       109.3           109.4           0.000    
    114      5     41     22       109.3           109.4           0.000    
    115      4     42     22       109.3           109.4           0.000    
    116      5     42     22       109.3           109.4           0.000    
    117      4     42     21       109.3           109.4           0.000    
    118      5     42     21       109.3           109.4           0.000    
    119      4     42     20       109.3           109.4           0.000    
    120      5     42     20       109.3           109.4           0.000    
    121      4     42     19       109.3           109.4           0.000    
    122      5     42     19       109.3           109.4           0.000    
    123      4     43     18       109.3           109.4           0.000    
    124      5     43     18       109.3           109.4           0.000    
    125      4     42     18       109.3           109.4           0.000    
    126      5     42     18       109.3           109.4           0.000    
    127      4     42     17       109.3           109.4           0.000    
    128      5     42     17       109.3           109.4           0.000    
    129      4     42     16       109.3           109.4           0.000    
    130      5     42     16       109.3           109.4           0.000    
    131      4     42     15       109.3           109.4           0.000    
    132      5     42     15       109.3           109.4           0.000    
    133      4     43     15       109.3           109.4           0.000    
    134      5     43     15       109.3           109.4           0.000    
    135      4     43     14       109.3           109.4           0.000    
    136      5     43     14       109.3           109.4           0.000    
    137      4     43     13       109.3           109.4           0.000    
    138      5     43     13       109.3           109.4           0.000    
    139      4     43     12       109.3           109.4           0.000    
    140      5     43     12       109.3           109.4           0.000    
    141      4     43     11       109.3           109.3           0.000    
    142      5     43     11       109.3           109.3           0.000    
    143      4     43     10       109.3           109.3           0.000    
    144      5     43     10       109.3           109.3           0.000    
    145      4     44     10       109.3           109.3           0.000    
    146      5     44     10       109.3           109.3           0.000    
    147      4     44      9       109.3           109.3           0.000    
    148      5     44      9       109.3           109.3           0.000    
    149      4     44      8       109.3           109.3           0.000    
    150      5     44      8       109.3           109.3           0.000    
    151      4     44      7       109.3           109.3           0.000    
    152      5     44      7       109.3           109.3           0.000    
    153      4     44      6       109.3           109.3           0.000    
    154      5     44      6       109.3           109.3           0.000    
    155      4     44      5       109.3           109.3           0.000    
    156      5     44      5       109.3           109.3           0.000    
    157      4     44      4       109.3           109.3           0.000    
    158      5     44      4       109.3           109.3           0.000    
    159      4     44      3       109.3           109.3           0.000    
    160      5     44      3       109.3           109.3           0.000    
    161      4     45      3       109.3           109.3           0.000    
    162      5     45      3       109.3           109.3           0.000    
    163      4     45      2       109.3           109.3           0.000    
    164      5     45      2       109.3           109.3           0.000    
    165      4     45      1       109.3           109.3           0.000    
    166      5     45      1       109.3           109.3           0.000    


    166 TIME-VARIANT SPECIFIED-HEAD CELLS

 SOLVING FOR HEAD 


     4 CALLS TO PCG ROUTINE FOR TIME STEP   1 IN STRESS PERIOD   67
    70 TOTAL ITERATIONS

 MAXIMUM HEAD CHANGE FOR EACH ITERATION (1 INDICATES THE FIRST INNER ITERATION):

    HEAD CHANGE    HEAD CHANGE    HEAD CHANGE    HEAD CHANGE    HEAD CHANGE 
   LAYER,ROW,COL  LAYER,ROW,COL  LAYER,ROW,COL  LAYER,ROW,COL  LAYER,ROW,COL
 ---------------------------------------------------------------------------
  1  0.1264      0 -0.7363E-01  0  0.5384E-01  0 -0.3947E-01  0  0.2805E-01
   (  5, 43,  5)  (  5, 39,  1)  (  5, 34,  1)  (  5, 32,  2)  (  5, 40,  1)
  0 -0.2733E-01  0  0.1682E-01  0 -0.1279E-01  0 -0.1190E-01  0  0.1042E-01
   (  5, 37,  1)  (  5, 41,  6)  (  5, 39,  1)  (  5, 38,  5)  (  5, 35,  5)
  0  0.6228E-02  0 -0.4688E-02  0  0.4745E-02  0 -0.3241E-02  0 -0.2023E-02
   (  5, 39,  1)  (  5, 36,  1)  (  5, 36,  9)  (  5, 33,  9)  (  5, 15,  1)
  0 -0.1862E-02  0  0.1015E-02  0 -0.1012E-02  0  0.7729E-03  0 -0.6957E-03
   (  5, 28,  9)  (  5, 26,  9)  (  5, 31,  8)  (  5, 37,  3)  (  5, 36,  1)
  0  0.3659E-03  0 -0.3166E-03  0  0.3169E-03  0 -0.2253E-03  0  0.1714E-03
   (  5, 23,  1)  (  5, 27,  4)  (  5, 31,  7)  (  5, 15,  1)  (  5, 41,  2)
  0 -0.1143E-03  0  0.1006E-03  0 -0.5843E-04  0 -0.4298E-04  0  0.3484E-04
   (  5, 39,  1)  (  5, 37,  1)  (  5, 38,  4)  (  5, 40,  2)  (  5, 39,  1)
  1  0.3828E-03  0  0.5823E-03  0  0.5940E-03  0  0.8743E-03  0  0.6572E-03
   (  5, 29,  4)  (  5, 28,  9)  (  5, 33,  3)  (  5, 27,  2)  (  5, 35,  1)
  0  0.5279E-03  0  0.5622E-03  0  0.3383E-03  0  0.3003E-03  0  0.1987E-03
   (  5, 33,  4)  (  5, 37,  1)  (  5, 24,  1)  (  5, 32,  1)  (  5, 23,  7)
  0 -0.1608E-03  0  0.1055E-03  0  0.1195E-03  0  0.7346E-04  0 -0.6986E-04
   (  5, 30,  2)  (  5, 28,  3)  (  5, 30, 10)  (  5, 20,  8)  (  5, 34,  2)
  0 -0.7235E-04  0  0.7896E-04  0  0.4465E-04  0 -0.3312E-04  0 -0.2082E-04
   (  5, 30,  8)  (  5, 15,  1)  (  5, 37,  9)  (  5, 35,  7)  (  5, 37,  2)
  0  0.2154E-04  0 -0.2494E-04  0 -0.1582E-04  0  0.1210E-04  0  0.1040E-04
   (  5, 33,  5)  (  5, 30,  3)  (  5, 37,  9)  (  5, 40,  7)  (  5, 40,  1)
  0 -0.6245E-05  0 -0.7520E-05  0  0.5479E-05  0  0.5972E-05  0  0.2745E-05
   (  5, 35,  1)  (  5, 14,  2)  (  5, 38,  2)  (  5, 13,  1)  (  5, 28,  1)
  1 -0.2454E-05  0 -0.4754E-05  0  0.2346E-05  0 -0.2305E-05  0  0.1789E-05
   (  5, 31,  2)  (  5, 13,  1)  (  5, 34,  4)  (  5, 32,  1)  (  5, 35,  1)
  0 -0.2053E-05  0  0.1110E-05  0 -0.1265E-05  0  0.9768E-06  1 -0.7000E-06
   (  5, 38,  1)  (  5, 36,  2)  (  5, 12,  2)  (  5, 31,  5)  (  5, 39,  1)

 MAXIMUM RESIDUAL FOR EACH ITERATION (1 INDICATES THE FIRST INNER ITERATION):

    RESIDUAL       RESIDUAL       RESIDUAL       RESIDUAL       RESIDUAL    
   LAYER,ROW,COL  LAYER,ROW,COL  LAYER,ROW,COL  LAYER,ROW,COL  LAYER,ROW,COL
 ---------------------------------------------------------------------------
  1 -0.4160E-03  0 -0.3524E-03  0 -0.2855E-03  0 -0.2210E-03  0 -0.1864E-03
   (  4, 44,  2)  (  4, 35, 35)  (  4, 35, 35)  (  4, 35, 35)  (  3, 40, 27)
  0 -0.1524E-03  0 -0.1208E-03  0 -0.9513E-04  0  0.7872E-04  0  0.6170E-04
   (  3, 40, 27)  (  3, 40, 27)  (  3, 40, 27)  (  3, 35, 35)  (  3, 35, 35)
  0  0.4810E-04  0  0.3707E-04  0  0.2646E-04  0  0.2111E-04  0  0.1648E-04
   (  4, 43,  4)  (  4, 43,  4)  (  4, 43,  4)  (  4, 44,  2)  (  4, 44,  2)
  0  0.1268E-04  0  0.1019E-04  0  0.7796E-05  0  0.6500E-05  0  0.5343E-05
   (  4, 34, 35)  (  4, 34, 35)  (  4, 34, 35)  (  4, 34, 35)  (  4, 34, 35)
  0  0.4407E-05  0  0.3764E-05  0  0.2749E-05  0  0.1917E-05  0  0.1385E-05
   (  4, 34, 35)  (  4, 34, 35)  (  4, 34, 35)  (  4, 34, 35)  (  4, 34, 35)
  0  0.1145E-05  0  0.8724E-06  0 -0.6072E-06  0 -0.4519E-06  0 -0.3748E-06
   (  4, 34, 35)  (  4, 34, 35)  (  4, 35, 35)  (  4, 35, 35)  (  4, 35, 35)
  1 -0.1203E-05  0 -0.1147E-05  0 -0.1078E-05  0 -0.1355E-05  0 -0.1019E-05
   (  3, 41,  3)  (  3, 41,  3)  (  3, 41,  3)  (  4, 31,  1)  (  4, 36,  1)
  0 -0.1500E-05  0 -0.1176E-05  0 -0.1174E-05  0 -0.1006E-05  0 -0.9367E-06
   (  4, 34,  1)  (  4, 38,  1)  (  4, 39,  1)  (  4, 41,  1)  (  4, 42,  1)
  0 -0.8029E-06  0 -0.7353E-06  0 -0.6222E-06  0 -0.5426E-06  0 -0.5063E-06
   (  4, 42,  1)  (  4, 43,  1)  (  4, 43,  1)  (  4, 44,  1)  (  4, 44,  1)
  0 -0.4178E-06  0 -0.3185E-06  0  0.2293E-06  0  0.2291E-06  0  0.2238E-06
   (  4, 44,  1)  (  4, 44,  1)  (  4, 44,  2)  (  4, 44,  2)  (  4, 44,  2)
  0  0.2146E-06  0  0.1892E-06  0  0.1595E-06  0  0.1275E-06  0  0.8584E-07
   (  4, 44,  2)  (  4, 44,  2)  (  4, 44,  2)  (  4, 44,  2)  (  4, 44,  2)
  0  0.7706E-07  0  0.5401E-07  0  0.4079E-07  0 -0.3195E-07  0 -0.3157E-07
   (  4, 44,  2)  (  4, 44,  2)  (  4, 44,  2)  (  4, 43,  2)  (  4, 43,  2)
  1 -0.3123E-07  0 -0.2777E-07  0 -0.2337E-07  0 -0.1891E-07  0 -0.1668E-07
   (  4, 43,  2)  (  4, 43,  2)  (  4, 43,  2)  (  4, 43,  2)  (  4, 43,  2)
  0  0.1255E-07  0  0.1133E-07  0  0.7879E-08  0 -0.6692E-08  1 -0.5837E-08
   (  4, 44,  2)  (  4, 44,  2)  (  4, 44,  2)  (  4, 40,  3)  (  4, 40,  3)



 OUTPUT CONTROL FOR STRESS PERIOD   67   TIME STEP    1
    SAVE HEAD FOR ALL LAYERS
    SAVE DRAWDOWN FOR ALL LAYERS
    SAVE BUDGET
    PRINT BUDGET
 UBDSV1 SAVING "         STORAGE" ON UNIT   9 AT TIME STEP  1, STRESS PERIOD  67
 UBDSV2 SAVING "   CONSTANT HEAD" ON UNIT   9 AT TIME STEP  1, STRESS PERIOD  67
 UBDSV1 SAVING "FLOW RIGHT FACE " ON UNIT   9 AT TIME STEP  1, STRESS PERIOD  67
 UBDSV1 SAVING "FLOW FRONT FACE " ON UNIT   9 AT TIME STEP  1, STRESS PERIOD  67
 UBDSV1 SAVING "FLOW LOWER FACE " ON UNIT   9 AT TIME STEP  1, STRESS PERIOD  67
 UBDSV3 SAVING "        RECHARGE" ON UNIT   9 AT TIME STEP  1, STRESS PERIOD  67

 HEAD WILL BE SAVED ON UNIT   37 AT END OF TIME STEP    1, STRESS PERIOD   67

 DRAWDOWN WILL BE SAVED ON UNIT   38 AT END OF TIME STEP    1, STRESS PERIOD   67
1
  VOLUMETRIC BUDGET FOR ENTIRE MODEL AT END OF TIME STEP    1, STRESS PERIOD  67
  ------------------------------------------------------------------------------

     CUMULATIVE VOLUMES      L**3       RATES FOR THIS TIME STEP      L**3/T
     ------------------                 ------------------------

           IN:                                      IN:
           ---                                      ---
             STORAGE =       11085.5029               STORAGE =       6.0572E-05
       CONSTANT HEAD =       17703.9844         CONSTANT HEAD =       1.0585E-03
            RECHARGE =         776.5060              RECHARGE =       1.0213E-04

            TOTAL IN =       29565.9941              TOTAL IN =       1.2212E-03

          OUT:                                     OUT:
          ----                                     ----
             STORAGE =        5843.6709               STORAGE =       1.0315E-03
       CONSTANT HEAD =       23723.1504         CONSTANT HEAD =       1.8972E-04
            RECHARGE =           0.0000              RECHARGE =           0.0000

           TOTAL OUT =       29566.8203             TOTAL OUT =       1.2212E-03

            IN - OUT =          -0.8262              IN - OUT =      -3.7020E-08

 PERCENT DISCREPANCY =          -0.00     PERCENT DISCREPANCY =          -0.00






         TIME SUMMARY AT END OF TIME STEP    1 IN STRESS PERIOD   67
                    SECONDS     MINUTES      HOURS       DAYS        YEARS
                    -----------------------------------------------------------
   TIME STEP LENGTH  86400.      1440.0      24.000      1.0000     2.73785E-03
 STRESS PERIOD TIME  86400.      1440.0      24.000      1.0000     2.73785E-03
         TOTAL TIME 7.60320E+06 1.26720E+05  2112.0      88.000     0.24093    
1
1
                            STRESS PERIOD NO.   68, LENGTH =   86400.00    
                            -----------------------------------------------

                              NUMBER OF TIME STEPS =     1

                               MULTIPLIER FOR DELT =     1.000

                            INITIAL TIME STEP SIZE =   86400.00    

 REUSING RECH FROM LAST STRESS PERIOD

 CHD NO.   LAYER   ROW   COL    START HEAD        END HEAD         IFACE           
 ----------------------------------------------------------------------------------
      1      4      3      1       109.4           109.5           0.000    
      2      5      3      1       109.4           109.5           0.000    
      3      4      3      2       109.4           109.5           0.000    
      4      5      3      2       109.4           109.5           0.000    
      5      4      3      3       109.4           109.5           0.000    
      6      5      3      3       109.4           109.5           0.000    
      7      4      3      4       109.4           109.5           0.000    
      8      5      3      4       109.4           109.5           0.000    
      9      4      3      5       109.4           109.5           0.000    
     10      5      3      5       109.4           109.5           0.000    
     11      4      3      6       109.4           109.5           0.000    
     12      5      3      6       109.4           109.5           0.000    
     13      4      3      7       109.4           109.5           0.000    
     14      5      3      7       109.4           109.5           0.000    
     15      4      3      8       109.4           109.5           0.000    
     16      5      3      8       109.4           109.5           0.000    
     17      4      2      8       109.4           109.5           0.000    
     18      5      2      8       109.4           109.5           0.000    
     19      4      2      9       109.4           109.5           0.000    
     20      5      2      9       109.4           109.5           0.000    
     21      4      2     10       109.4           109.5           0.000    
     22      5      2     10       109.4           109.5           0.000    
     23      4      2     11       109.4           109.5           0.000    
     24      5      2     11       109.4           109.5           0.000    
     25      4      2     12       109.4           109.5           0.000    
     26      5      2     12       109.4           109.5           0.000    
     27      4      2     13       109.4           109.5           0.000    
     28      5      2     13       109.4           109.5           0.000    
     29      4      2     14       109.4           109.5           0.000    
     30      5      2     14       109.4           109.5           0.000    
     31      4      2     15       109.4           109.5           0.000    
     32      5      2     15       109.4           109.5           0.000    
     33      4      2     16       109.4           109.5           0.000    
     34      5      2     16       109.4           109.5           0.000    
     35      4      2     17       109.4           109.5           0.000    
     36      5      2     17       109.4           109.5           0.000    
     37      4      2     18       109.4           109.5           0.000    
     38      5      2     18       109.4           109.5           0.000    
     39      4      2     19       109.4           109.5           0.000    
     40      5      2     19       109.4           109.5           0.000    
     41      4      2     20       109.4           109.5           0.000    
     42      5      2     20       109.4           109.5           0.000    
     43      4      2     21       109.4           109.5           0.000    
     44      5      2     21       109.4           109.5           0.000    
     45      4      2     22       109.4           109.5           0.000    
     46      5      2     22       109.4           109.5           0.000    
     47      4      2     23       109.4           109.5           0.000    
     48      5      2     23       109.4           109.5           0.000    
     49      4      2     24       109.4           109.5           0.000    
     50      5      2     24       109.4           109.5           0.000    
     51      4      2     25       109.4           109.5           0.000    
     52      5      2     25       109.4           109.5           0.000    
     53      4      2     26       109.4           109.5           0.000    
     54      5      2     26       109.4           109.5           0.000    
     55      4      1     26       109.4           109.5           0.000    
     56      5      1     26       109.4           109.5           0.000    
     57      4      1     27       109.4           109.5           0.000    
     58      5      1     27       109.4           109.5           0.000    
     59      4      1     28       109.4           109.5           0.000    
     60      5      1     28       109.4           109.5           0.000    
     61      4      1     29       109.4           109.5           0.000    
     62      5      1     29       109.4           109.5           0.000    
     63      4      1     30       109.4           109.5           0.000    
     64      5      1     30       109.4           109.5           0.000    
     65      4      1     31       109.4           109.5           0.000    
     66      5      1     31       109.4           109.5           0.000    
     67      4      1     32       109.4           109.5           0.000    
     68      5      1     32       109.4           109.5           0.000    
     69      4      1     33       109.4           109.5           0.000    
     70      5      1     33       109.4           109.5           0.000    
     71      4      1     34       109.4           109.5           0.000    
     72      5      1     34       109.4           109.5           0.000    
     73      4      1     35       109.4           109.5           0.000    
     74      5      1     35       109.4           109.5           0.000    
     75      4     36     35       109.4           109.4           0.000    
     76      5     36     35       109.4           109.4           0.000    
     77      4     35     34       109.4           109.4           0.000    
     78      5     35     34       109.4           109.4           0.000    
     79      4     36     34       109.4           109.4           0.000    
     80      5     36     34       109.4           109.4           0.000    
     81      4     36     33       109.4           109.4           0.000    
     82      5     36     33       109.4           109.4           0.000    
     83      4     36     32       109.4           109.4           0.000    
     84      5     36     32       109.4           109.4           0.000    
     85      4     37     32       109.4           109.4           0.000    
     86      5     37     32       109.4           109.4           0.000    
     87      4     37     31       109.4           109.4           0.000    
     88      5     37     31       109.4           109.4           0.000    
     89      4     38     31       109.4           109.4           0.000    
     90      5     38     31       109.4           109.4           0.000    
     91      4     38     30       109.4           109.4           0.000    
     92      5     38     30       109.4           109.4           0.000    
     93      4     39     30       109.4           109.4           0.000    
     94      5     39     30       109.4           109.4           0.000    
     95      4     39     29       109.4           109.4           0.000    
     96      5     39     29       109.4           109.4           0.000    
     97      4     40     29       109.4           109.4           0.000    
     98      5     40     29       109.4           109.4           0.000    
     99      4     40     28       109.4           109.4           0.000    
    100      5     40     28       109.4           109.4           0.000    
    101      4     40     27       109.4           109.4           0.000    
    102      5     40     27       109.4           109.4           0.000    
    103      4     41     27       109.4           109.4           0.000    
    104      5     41     27       109.4           109.4           0.000    
    105      4     41     26       109.4           109.4           0.000    
    106      5     41     26       109.4           109.4           0.000    
    107      4     41     25       109.4           109.4           0.000    
    108      5     41     25       109.4           109.4           0.000    
    109      4     41     24       109.4           109.4           0.000    
    110      5     41     24       109.4           109.4           0.000    
    111      4     41     23       109.4           109.4           0.000    
    112      5     41     23       109.4           109.4           0.000    
    113      4     41     22       109.4           109.4           0.000    
    114      5     41     22       109.4           109.4           0.000    
    115      4     42     22       109.4           109.4           0.000    
    116      5     42     22       109.4           109.4           0.000    
    117      4     42     21       109.4           109.4           0.000    
    118      5     42     21       109.4           109.4           0.000    
    119      4     42     20       109.4           109.4           0.000    
    120      5     42     20       109.4           109.4           0.000    
    121      4     42     19       109.4           109.4           0.000    
    122      5     42     19       109.4           109.4           0.000    
    123      4     43     18       109.4           109.4           0.000    
    124      5     43     18       109.4           109.4           0.000    
    125      4     42     18       109.4           109.4           0.000    
    126      5     42     18       109.4           109.4           0.000    
    127      4     42     17       109.4           109.4           0.000    
    128      5     42     17       109.4           109.4           0.000    
    129      4     42     16       109.4           109.4           0.000    
    130      5     42     16       109.4           109.4           0.000    
    131      4     42     15       109.4           109.4           0.000    
    132      5     42     15       109.4           109.4           0.000    
    133      4     43     15       109.4           109.4           0.000    
    134      5     43     15       109.4           109.4           0.000    
    135      4     43     14       109.4           109.4           0.000    
    136      5     43     14       109.4           109.4           0.000    
    137      4     43     13       109.4           109.4           0.000    
    138      5     43     13       109.4           109.4           0.000    
    139      4     43     12       109.4           109.4           0.000    
    140      5     43     12       109.4           109.4           0.000    
    141      4     43     11       109.3           109.4           0.000    
    142      5     43     11       109.3           109.4           0.000    
    143      4     43     10       109.3           109.4           0.000    
    144      5     43     10       109.3           109.4           0.000    
    145      4     44     10       109.3           109.4           0.000    
    146      5     44     10       109.3           109.4           0.000    
    147      4     44      9       109.3           109.4           0.000    
    148      5     44      9       109.3           109.4           0.000    
    149      4     44      8       109.3           109.4           0.000    
    150      5     44      8       109.3           109.4           0.000    
    151      4     44      7       109.3           109.4           0.000    
    152      5     44      7       109.3           109.4           0.000    
    153      4     44      6       109.3           109.4           0.000    
    154      5     44      6       109.3           109.4           0.000    
    155      4     44      5       109.3           109.4           0.000    
    156      5     44      5       109.3           109.4           0.000    
    157      4     44      4       109.3           109.4           0.000    
    158      5     44      4       109.3           109.4           0.000    
    159      4     44      3       109.3           109.4           0.000    
    160      5     44      3       109.3           109.4           0.000    
    161      4     45      3       109.3           109.4           0.000    
    162      5     45      3       109.3           109.4           0.000    
    163      4     45      2       109.3           109.4           0.000    
    164      5     45      2       109.3           109.4           0.000    
    165      4     45      1       109.3           109.4           0.000    
    166      5     45      1       109.3           109.4           0.000    


    166 TIME-VARIANT SPECIFIED-HEAD CELLS

 SOLVING FOR HEAD 


     3 CALLS TO PCG ROUTINE FOR TIME STEP   1 IN STRESS PERIOD   68
    61 TOTAL ITERATIONS

 MAXIMUM HEAD CHANGE FOR EACH ITERATION (1 INDICATES THE FIRST INNER ITERATION):

    HEAD CHANGE    HEAD CHANGE    HEAD CHANGE    HEAD CHANGE    HEAD CHANGE 
   LAYER,ROW,COL  LAYER,ROW,COL  LAYER,ROW,COL  LAYER,ROW,COL  LAYER,ROW,COL
 ---------------------------------------------------------------------------
  1  0.1953      0 -0.1187      0 -0.8419E-01  0 -0.5771E-01  0  0.6504E-01
   (  5, 43,  5)  (  5, 33,  1)  (  5, 39,  2)  (  5, 41,  2)  (  5, 37,  1)
  0  0.4178E-01  0  0.3645E-01  0 -0.4713E-01  0 -0.2899E-01  0 -0.2227E-01
   (  5, 39,  1)  (  5, 40,  1)  (  5, 37,  1)  (  5, 37,  6)  (  5, 40,  1)
  0 -0.1937E-01  0  0.2064E-01  0 -0.8147E-02  0 -0.1200E-01  0  0.7482E-02
   (  5, 36, 10)  (  5, 32,  9)  (  5, 30,  3)  (  5, 30,  9)  (  5, 36,  8)
  0 -0.4736E-02  0  0.5414E-02  0 -0.4047E-02  0 -0.2844E-02  0  0.2783E-02
   (  5, 35,  4)  (  5, 34,  1)  (  5, 35,  8)  (  5, 39,  1)  (  5, 37,  1)
  0 -0.2550E-02  0  0.1395E-02  0  0.1627E-02  0 -0.5729E-03  0 -0.9485E-03
   (  5, 38,  4)  (  5, 23, 11)  (  5, 14,  2)  (  5, 28,  1)  (  5, 13,  1)
  0  0.7339E-03  0 -0.7712E-03  0  0.4623E-03  0 -0.4566E-03  0  0.2940E-03
   (  5, 39,  4)  (  5, 38,  1)  (  5, 35,  1)  (  5, 36,  3)  (  5, 36,  1)
  1  0.2789E-03  0 -0.2565E-03  0  0.2601E-03  0 -0.1964E-03  0  0.3548E-03
   (  5, 13,  2)  (  5, 27,  5)  (  5, 29,  4)  (  5, 32,  3)  (  5, 37,  1)
  0 -0.2354E-03  0  0.1508E-03  0  0.1611E-03  0 -0.9643E-04  0  0.8328E-04
   (  5, 38,  3)  (  5, 12,  1)  (  5, 39,  2)  (  5, 37,  1)  (  5, 34,  1)
  0  0.8502E-04  0 -0.5425E-04  0 -0.3720E-04  0 -0.2115E-04  0  0.3876E-04
   (  5, 14,  1)  (  5, 41,  2)  (  5, 32,  9)  (  5, 31,  3)  (  5, 34,  9)
  0 -0.2731E-04  0 -0.1710E-04  0  0.1784E-04  0  0.1911E-04  0 -0.1047E-04
   (  5, 29,  9)  (  5, 37,  4)  (  5, 33,  4)  (  5, 15,  1)  (  5, 14,  1)
  0  0.6797E-05  0 -0.8143E-05  0  0.5788E-05  0  0.2887E-05  0  0.3975E-05
   (  5, 38,  1)  (  5, 36,  1)  (  5, 38,  1)  (  5, 31,  4)  (  5, 34,  7)
  0 -0.4065E-05  0  0.3144E-05  0 -0.2135E-05  0  0.1967E-05  0  0.1662E-05
   (  5, 35,  6)  (  5, 42,  1)  (  5, 38,  6)  (  5, 35,  1)  (  5, 40,  1)
  1 -0.9774E-06
   (  5, 39,  1)

 MAXIMUM RESIDUAL FOR EACH ITERATION (1 INDICATES THE FIRST INNER ITERATION):

    RESIDUAL       RESIDUAL       RESIDUAL       RESIDUAL       RESIDUAL    
   LAYER,ROW,COL  LAYER,ROW,COL  LAYER,ROW,COL  LAYER,ROW,COL  LAYER,ROW,COL
 ---------------------------------------------------------------------------
  1 -0.6208E-03  0 -0.4815E-03  0 -0.4266E-03  0 -0.3769E-03  0 -0.3191E-03
   (  3,  3,  1)  (  3,  3,  1)  (  3,  3,  1)  (  3,  3,  1)  (  3,  3,  1)
  0 -0.2702E-03  0  0.2241E-03  0  0.1796E-03  0  0.1414E-03  0  0.1115E-03
   (  3,  3,  1)  (  4, 43,  5)  (  4, 43,  5)  (  4, 43,  4)  (  4, 43,  4)
  0  0.9092E-04  0  0.7823E-04  0  0.7462E-04  0  0.6075E-04  0  0.4854E-04
   (  4, 44,  2)  (  4, 44,  2)  (  4, 44,  2)  (  4, 44,  2)  (  4, 44,  2)
  0  0.4340E-04  0  0.3592E-04  0  0.2673E-04  0  0.2127E-04  0  0.1746E-04
   (  4, 44,  2)  (  4, 44,  2)  (  4, 44,  2)  (  4, 44,  2)  (  4, 44,  2)
  0  0.1421E-04  0 -0.1025E-04  0 -0.7567E-05  0 -0.7283E-05  0  0.5626E-05
   (  4, 44,  2)  (  3,  3,  1)  (  3,  3,  1)  (  3,  3,  1)  (  3,  3,  2)
  0  0.4692E-05  0  0.3937E-05  0  0.3510E-05  0  0.2800E-05  0  0.2144E-05
   (  3,  3,  2)  (  3,  3,  2)  (  3,  3,  2)  (  3,  3,  2)  (  3,  3,  2)
  1  0.1807E-05  0 -0.1571E-05  0 -0.1442E-05  0 -0.1380E-05  0 -0.1142E-05
   (  3,  3,  2)  (  3,  3,  1)  (  3,  3,  1)  (  3,  3,  1)  (  3,  3,  1)
  0 -0.9974E-06  0 -0.7864E-06  0 -0.6541E-06  0 -0.5276E-06  0 -0.4366E-06
   (  3,  3,  1)  (  3,  3,  1)  (  3,  3,  1)  (  3,  3,  1)  (  3,  3,  1)
  0 -0.3362E-06  0  0.2731E-06  0 -0.2229E-06  0 -0.2175E-06  0 -0.1905E-06
   (  3,  3,  1)  (  4, 44,  2)  (  4, 44,  1)  (  4, 44,  1)  (  4, 44,  1)
  0 -0.1588E-06  0 -0.1472E-06  0 -0.1234E-06  0 -0.9311E-07  0  0.6788E-07
   (  4, 44,  1)  (  4, 44,  1)  (  4, 44,  1)  (  4, 44,  1)  (  4, 44,  2)
  0  0.5959E-07  0  0.5121E-07  0  0.4070E-07  0  0.3877E-07  0  0.2980E-07
   (  4, 44,  2)  (  4, 44,  2)  (  4, 44,  2)  (  4, 44,  2)  (  4, 44,  2)
  0  0.2192E-07  0  0.1528E-07  0  0.1208E-07  0  0.9679E-08  0  0.6995E-08
   (  4, 44,  2)  (  4, 44,  2)  (  4, 44,  2)  (  4, 44,  2)  (  4, 44,  2)
  1  0.6712E-08
   (  4, 44,  2)



 OUTPUT CONTROL FOR STRESS PERIOD   68   TIME STEP    1
    SAVE HEAD FOR ALL LAYERS
    SAVE DRAWDOWN FOR ALL LAYERS
    SAVE BUDGET
    PRINT BUDGET
 UBDSV1 SAVING "         STORAGE" ON UNIT   9 AT TIME STEP  1, STRESS PERIOD  68
 UBDSV2 SAVING "   CONSTANT HEAD" ON UNIT   9 AT TIME STEP  1, STRESS PERIOD  68
 UBDSV1 SAVING "FLOW RIGHT FACE " ON UNIT   9 AT TIME STEP  1, STRESS PERIOD  68
 UBDSV1 SAVING "FLOW FRONT FACE " ON UNIT   9 AT TIME STEP  1, STRESS PERIOD  68
 UBDSV1 SAVING "FLOW LOWER FACE " ON UNIT   9 AT TIME STEP  1, STRESS PERIOD  68
 UBDSV3 SAVING "        RECHARGE" ON UNIT   9 AT TIME STEP  1, STRESS PERIOD  68

 HEAD WILL BE SAVED ON UNIT   37 AT END OF TIME STEP    1, STRESS PERIOD   68

 DRAWDOWN WILL BE SAVED ON UNIT   38 AT END OF TIME STEP    1, STRESS PERIOD   68
1
  VOLUMETRIC BUDGET FOR ENTIRE MODEL AT END OF TIME STEP    1, STRESS PERIOD  68
  ------------------------------------------------------------------------------

     CUMULATIVE VOLUMES      L**3       RATES FOR THIS TIME STEP      L**3/T
     ------------------                 ------------------------

           IN:                                      IN:
           ---                                      ---
             STORAGE =       11085.5029               STORAGE =           0.0000
       CONSTANT HEAD =       17927.7891         CONSTANT HEAD =       2.5903E-03
            RECHARGE =         785.3300              RECHARGE =       1.0213E-04

            TOTAL IN =       29798.6230              TOTAL IN =       2.6925E-03

          OUT:                                     OUT:
          ----                                     ----
             STORAGE =        6045.7134               STORAGE =       2.3385E-03
       CONSTANT HEAD =       23753.7324         CONSTANT HEAD =       3.5395E-04
            RECHARGE =           0.0000              RECHARGE =           0.0000

           TOTAL OUT =       29799.4453             TOTAL OUT =       2.6924E-03

            IN - OUT =          -0.8223              IN - OUT =       4.3306E-08

 PERCENT DISCREPANCY =          -0.00     PERCENT DISCREPANCY =           0.00






         TIME SUMMARY AT END OF TIME STEP    1 IN STRESS PERIOD   68
                    SECONDS     MINUTES      HOURS       DAYS        YEARS
                    -----------------------------------------------------------
   TIME STEP LENGTH  86400.      1440.0      24.000      1.0000     2.73785E-03
 STRESS PERIOD TIME  86400.      1440.0      24.000      1.0000     2.73785E-03
         TOTAL TIME 7.68960E+06 1.28160E+05  2136.0      89.000     0.24367    
1
1
                            STRESS PERIOD NO.   69, LENGTH =   172800.0    
                            -----------------------------------------------

                              NUMBER OF TIME STEPS =     2

                               MULTIPLIER FOR DELT =     1.000

                            INITIAL TIME STEP SIZE =   86400.00    

 REUSING RECH FROM LAST STRESS PERIOD

 CHD NO.   LAYER   ROW   COL    START HEAD        END HEAD         IFACE           
 ----------------------------------------------------------------------------------
      1      4      3      1       109.5           109.5           0.000    
      2      5      3      1       109.5           109.5           0.000    
      3      4      3      2       109.5           109.5           0.000    
      4      5      3      2       109.5           109.5           0.000    
      5      4      3      3       109.5           109.5           0.000    
      6      5      3      3       109.5           109.5           0.000    
      7      4      3      4       109.5           109.5           0.000    
      8      5      3      4       109.5           109.5           0.000    
      9      4      3      5       109.5           109.5           0.000    
     10      5      3      5       109.5           109.5           0.000    
     11      4      3      6       109.5           109.5           0.000    
     12      5      3      6       109.5           109.5           0.000    
     13      4      3      7       109.5           109.5           0.000    
     14      5      3      7       109.5           109.5           0.000    
     15      4      3      8       109.5           109.5           0.000    
     16      5      3      8       109.5           109.5           0.000    
     17      4      2      8       109.5           109.5           0.000    
     18      5      2      8       109.5           109.5           0.000    
     19      4      2      9       109.5           109.5           0.000    
     20      5      2      9       109.5           109.5           0.000    
     21      4      2     10       109.5           109.5           0.000    
     22      5      2     10       109.5           109.5           0.000    
     23      4      2     11       109.5           109.5           0.000    
     24      5      2     11       109.5           109.5           0.000    
     25      4      2     12       109.5           109.5           0.000    
     26      5      2     12       109.5           109.5           0.000    
     27      4      2     13       109.5           109.5           0.000    
     28      5      2     13       109.5           109.5           0.000    
     29      4      2     14       109.5           109.5           0.000    
     30      5      2     14       109.5           109.5           0.000    
     31      4      2     15       109.5           109.5           0.000    
     32      5      2     15       109.5           109.5           0.000    
     33      4      2     16       109.5           109.5           0.000    
     34      5      2     16       109.5           109.5           0.000    
     35      4      2     17       109.5           109.5           0.000    
     36      5      2     17       109.5           109.5           0.000    
     37      4      2     18       109.5           109.5           0.000    
     38      5      2     18       109.5           109.5           0.000    
     39      4      2     19       109.5           109.5           0.000    
     40      5      2     19       109.5           109.5           0.000    
     41      4      2     20       109.5           109.5           0.000    
     42      5      2     20       109.5           109.5           0.000    
     43      4      2     21       109.5           109.5           0.000    
     44      5      2     21       109.5           109.5           0.000    
     45      4      2     22       109.5           109.5           0.000    
     46      5      2     22       109.5           109.5           0.000    
     47      4      2     23       109.5           109.5           0.000    
     48      5      2     23       109.5           109.5           0.000    
     49      4      2     24       109.5           109.5           0.000    
     50      5      2     24       109.5           109.5           0.000    
     51      4      2     25       109.5           109.5           0.000    
     52      5      2     25       109.5           109.5           0.000    
     53      4      2     26       109.5           109.5           0.000    
     54      5      2     26       109.5           109.5           0.000    
     55      4      1     26       109.5           109.5           0.000    
     56      5      1     26       109.5           109.5           0.000    
     57      4      1     27       109.5           109.5           0.000    
     58      5      1     27       109.5           109.5           0.000    
     59      4      1     28       109.5           109.5           0.000    
     60      5      1     28       109.5           109.5           0.000    
     61      4      1     29       109.5           109.5           0.000    
     62      5      1     29       109.5           109.5           0.000    
     63      4      1     30       109.5           109.5           0.000    
     64      5      1     30       109.5           109.5           0.000    
     65      4      1     31       109.5           109.5           0.000    
     66      5      1     31       109.5           109.5           0.000    
     67      4      1     32       109.5           109.5           0.000    
     68      5      1     32       109.5           109.5           0.000    
     69      4      1     33       109.5           109.5           0.000    
     70      5      1     33       109.5           109.5           0.000    
     71      4      1     34       109.5           109.5           0.000    
     72      5      1     34       109.5           109.5           0.000    
     73      4      1     35       109.5           109.5           0.000    
     74      5      1     35       109.5           109.5           0.000    
     75      4     36     35       109.4           109.4           0.000    
     76      5     36     35       109.4           109.4           0.000    
     77      4     35     34       109.4           109.4           0.000    
     78      5     35     34       109.4           109.4           0.000    
     79      4     36     34       109.4           109.4           0.000    
     80      5     36     34       109.4           109.4           0.000    
     81      4     36     33       109.4           109.4           0.000    
     82      5     36     33       109.4           109.4           0.000    
     83      4     36     32       109.4           109.4           0.000    
     84      5     36     32       109.4           109.4           0.000    
     85      4     37     32       109.4           109.4           0.000    
     86      5     37     32       109.4           109.4           0.000    
     87      4     37     31       109.4           109.4           0.000    
     88      5     37     31       109.4           109.4           0.000    
     89      4     38     31       109.4           109.4           0.000    
     90      5     38     31       109.4           109.4           0.000    
     91      4     38     30       109.4           109.4           0.000    
     92      5     38     30       109.4           109.4           0.000    
     93      4     39     30       109.4           109.4           0.000    
     94      5     39     30       109.4           109.4           0.000    
     95      4     39     29       109.4           109.4           0.000    
     96      5     39     29       109.4           109.4           0.000    
     97      4     40     29       109.4           109.4           0.000    
     98      5     40     29       109.4           109.4           0.000    
     99      4     40     28       109.4           109.4           0.000    
    100      5     40     28       109.4           109.4           0.000    
    101      4     40     27       109.4           109.4           0.000    
    102      5     40     27       109.4           109.4           0.000    
    103      4     41     27       109.4           109.4           0.000    
    104      5     41     27       109.4           109.4           0.000    
    105      4     41     26       109.4           109.4           0.000    
    106      5     41     26       109.4           109.4           0.000    
    107      4     41     25       109.4           109.4           0.000    
    108      5     41     25       109.4           109.4           0.000    
    109      4     41     24       109.4           109.4           0.000    
    110      5     41     24       109.4           109.4           0.000    
    111      4     41     23       109.4           109.4           0.000    
    112      5     41     23       109.4           109.4           0.000    
    113      4     41     22       109.4           109.4           0.000    
    114      5     41     22       109.4           109.4           0.000    
    115      4     42     22       109.4           109.4           0.000    
    116      5     42     22       109.4           109.4           0.000    
    117      4     42     21       109.4           109.4           0.000    
    118      5     42     21       109.4           109.4           0.000    
    119      4     42     20       109.4           109.4           0.000    
    120      5     42     20       109.4           109.4           0.000    
    121      4     42     19       109.4           109.4           0.000    
    122      5     42     19       109.4           109.4           0.000    
    123      4     43     18       109.4           109.4           0.000    
    124      5     43     18       109.4           109.4           0.000    
    125      4     42     18       109.4           109.4           0.000    
    126      5     42     18       109.4           109.4           0.000    
    127      4     42     17       109.4           109.4           0.000    
    128      5     42     17       109.4           109.4           0.000    
    129      4     42     16       109.4           109.4           0.000    
    130      5     42     16       109.4           109.4           0.000    
    131      4     42     15       109.4           109.4           0.000    
    132      5     42     15       109.4           109.4           0.000    
    133      4     43     15       109.4           109.4           0.000    
    134      5     43     15       109.4           109.4           0.000    
    135      4     43     14       109.4           109.4           0.000    
    136      5     43     14       109.4           109.4           0.000    
    137      4     43     13       109.4           109.4           0.000    
    138      5     43     13       109.4           109.4           0.000    
    139      4     43     12       109.4           109.4           0.000    
    140      5     43     12       109.4           109.4           0.000    
    141      4     43     11       109.4           109.4           0.000    
    142      5     43     11       109.4           109.4           0.000    
    143      4     43     10       109.4           109.4           0.000    
    144      5     43     10       109.4           109.4           0.000    
    145      4     44     10       109.4           109.4           0.000    
    146      5     44     10       109.4           109.4           0.000    
    147      4     44      9       109.4           109.4           0.000    
    148      5     44      9       109.4           109.4           0.000    
    149      4     44      8       109.4           109.4           0.000    
    150      5     44      8       109.4           109.4           0.000    
    151      4     44      7       109.4           109.4           0.000    
    152      5     44      7       109.4           109.4           0.000    
    153      4     44      6       109.4           109.4           0.000    
    154      5     44      6       109.4           109.4           0.000    
    155      4     44      5       109.4           109.3           0.000    
    156      5     44      5       109.4           109.3           0.000    
    157      4     44      4       109.4           109.3           0.000    
    158      5     44      4       109.4           109.3           0.000    
    159      4     44      3       109.4           109.3           0.000    
    160      5     44      3       109.4           109.3           0.000    
    161      4     45      3       109.4           109.3           0.000    
    162      5     45      3       109.4           109.3           0.000    
    163      4     45      2       109.4           109.3           0.000    
    164      5     45      2       109.4           109.3           0.000    
    165      4     45      1       109.4           109.3           0.000    
    166      5     45      1       109.4           109.3           0.000    


    166 TIME-VARIANT SPECIFIED-HEAD CELLS

 SOLVING FOR HEAD 


     3 CALLS TO PCG ROUTINE FOR TIME STEP   1 IN STRESS PERIOD   69
    57 TOTAL ITERATIONS

 MAXIMUM HEAD CHANGE FOR EACH ITERATION (1 INDICATES THE FIRST INNER ITERATION):

    HEAD CHANGE    HEAD CHANGE    HEAD CHANGE    HEAD CHANGE    HEAD CHANGE 
   LAYER,ROW,COL  LAYER,ROW,COL  LAYER,ROW,COL  LAYER,ROW,COL  LAYER,ROW,COL
 ---------------------------------------------------------------------------
  1 -0.3673E-01  0  0.2344E-01  0 -0.1899E-01  0  0.1582E-01  0 -0.2108E-01
   (  5, 43,  5)  (  5, 36,  2)  (  5, 33,  2)  (  5, 31,  3)  (  5, 37,  1)
  0  0.1569E-01  0 -0.1003E-01  0  0.1263E-01  0  0.8325E-02  0 -0.5155E-02
   (  5, 36,  2)  (  5, 40,  1)  (  5, 37,  1)  (  5, 37,  6)  (  5, 30, 11)
  0  0.4691E-02  0  0.3942E-02  0  0.2008E-02  0 -0.2838E-02  0  0.2960E-02
   (  5, 33,  1)  (  5, 28, 11)  (  5, 28,  2)  (  5, 34,  8)  (  5, 32,  9)
  0  0.1278E-02  0 -0.1427E-02  0  0.1587E-02  0 -0.9797E-03  0  0.7528E-03
   (  5, 34,  3)  (  5, 40,  1)  (  5, 35,  8)  (  5, 34,  9)  (  5, 38,  4)
  0 -0.5429E-03  0  0.5003E-03  0  0.4746E-03  0  0.2772E-03  0 -0.3054E-03
   (  5, 37,  1)  (  5, 35,  1)  (  5, 40,  1)  (  5, 30,  2)  (  5, 35,  6)
  0  0.1793E-03  0  0.1563E-03  0 -0.1211E-03  0 -0.1055E-03  0  0.1175E-03
   (  5, 41,  1)  (  5, 35,  2)  (  5, 34,  4)  (  5, 40,  2)  (  5, 38,  1)
  1 -0.6619E-04  0  0.5607E-04  0  0.5334E-04  0 -0.5329E-04  0  0.3914E-04
   (  5, 13,  2)  (  5, 39,  2)  (  5, 32,  3)  (  5, 30,  4)  (  5, 32,  4)
  0 -0.3208E-04  0  0.3834E-04  0 -0.4472E-04  0  0.2308E-04  0 -0.3148E-04
   (  5, 34,  4)  (  5, 35,  1)  (  5, 39,  5)  (  5, 37,  1)  (  5, 39,  1)
  0  0.2988E-04  0 -0.1187E-04  0  0.8274E-05  0 -0.8026E-05  0  0.7451E-05
   (  5, 41,  2)  (  5, 39,  2)  (  5, 28,  2)  (  5, 29,  7)  (  5, 29,  8)
  0 -0.6040E-05  0  0.4313E-05  0 -0.3088E-05  0 -0.3138E-05  0  0.2114E-05
   (  5, 34,  9)  (  5, 39,  1)  (  5, 34,  2)  (  5, 14,  1)  (  5, 16,  1)
  0  0.2253E-05  0 -0.1290E-05  0  0.1851E-05  0  0.1130E-05  0  0.1215E-05
   (  5, 36,  1)  (  5, 32,  3)  (  5, 32,  5)  (  5, 34,  8)  (  5, 30,  1)
  0  0.9418E-06  1 -0.5790E-06
   (  5, 38,  2)  (  5, 39,  2)

 MAXIMUM RESIDUAL FOR EACH ITERATION (1 INDICATES THE FIRST INNER ITERATION):

    RESIDUAL       RESIDUAL       RESIDUAL       RESIDUAL       RESIDUAL    
   LAYER,ROW,COL  LAYER,ROW,COL  LAYER,ROW,COL  LAYER,ROW,COL  LAYER,ROW,COL
 ---------------------------------------------------------------------------
  1  0.2784E-03  0  0.2350E-03  0  0.1919E-03  0  0.1639E-03  0  0.1167E-03
   (  4, 44,  2)  (  4, 44,  2)  (  4, 44,  2)  (  4, 44,  2)  (  3, 40, 27)
  0  0.9734E-04  0  0.8245E-04  0  0.6386E-04  0  0.5136E-04  0  0.4518E-04
   (  3, 40, 27)  (  3, 40, 27)  (  3, 40, 27)  (  4, 35, 35)  (  4, 35, 35)
  0  0.3776E-04  0  0.2966E-04  0  0.2761E-04  0  0.2169E-04  0  0.1584E-04
   (  4, 35, 35)  (  4, 35, 35)  (  4, 35, 35)  (  4, 35, 35)  (  4, 35, 35)
  0 -0.1451E-04  0 -0.1227E-04  0 -0.9896E-05  0 -0.8024E-05  0 -0.6170E-05
   (  4, 44,  2)  (  4, 44,  2)  (  4, 44,  2)  (  4, 44,  2)  (  4, 34, 35)
  0 -0.5480E-05  0 -0.4596E-05  0 -0.3544E-05  0 -0.3306E-05  0 -0.2748E-05
   (  4, 34, 35)  (  4, 34, 35)  (  4, 34, 35)  (  4, 34, 35)  (  4, 34, 35)
  0 -0.2156E-05  0 -0.1934E-05  0 -0.1660E-05  0 -0.1420E-05  0 -0.1148E-05
   (  4, 34, 35)  (  4, 34, 35)  (  4, 34, 35)  (  4, 34, 35)  (  4, 34, 35)
  1 -0.1093E-05  0 -0.1030E-05  0 -0.9572E-06  0 -0.8461E-06  0 -0.7347E-06
   (  4, 34, 35)  (  4, 34, 35)  (  4, 34, 35)  (  4, 34, 35)  (  4, 34, 35)
  0 -0.6160E-06  0 -0.5657E-06  0 -0.4179E-06  0 -0.3252E-06  0 -0.2432E-06
   (  4, 34, 35)  (  4, 34, 35)  (  4, 34, 35)  (  4, 34, 35)  (  4, 34, 35)
  0 -0.1738E-06  0 -0.1301E-06  0 -0.1200E-06  0  0.9703E-07  0  0.8108E-07
   (  4, 34, 35)  (  4, 34, 35)  (  4, 34, 35)  (  4, 35, 35)  (  4, 35, 35)
  0  0.6515E-07  0  0.5030E-07  0  0.4599E-07  0  0.3414E-07  0  0.2528E-07
   (  4, 35, 35)  (  4, 35, 35)  (  4, 35, 35)  (  4, 35, 35)  (  4, 35, 35)
  0  0.2223E-07  0  0.1903E-07  0  0.1584E-07  0  0.1090E-07  0  0.7385E-08
   (  4, 35, 35)  (  4, 35, 35)  (  4, 35, 35)  (  4, 35, 35)  (  4, 35, 35)
  0  0.5333E-08  1  0.5301E-08
   (  4, 35, 35)  (  4, 35, 35)



 OUTPUT CONTROL FOR STRESS PERIOD   69   TIME STEP    1
    SAVE HEAD FOR ALL LAYERS
    SAVE DRAWDOWN FOR ALL LAYERS
    SAVE BUDGET
    PRINT BUDGET
 UBDSV1 SAVING "         STORAGE" ON UNIT   9 AT TIME STEP  1, STRESS PERIOD  69
 UBDSV2 SAVING "   CONSTANT HEAD" ON UNIT   9 AT TIME STEP  1, STRESS PERIOD  69
 UBDSV1 SAVING "FLOW RIGHT FACE " ON UNIT   9 AT TIME STEP  1, STRESS PERIOD  69
 UBDSV1 SAVING "FLOW FRONT FACE " ON UNIT   9 AT TIME STEP  1, STRESS PERIOD  69
 UBDSV1 SAVING "FLOW LOWER FACE " ON UNIT   9 AT TIME STEP  1, STRESS PERIOD  69
 UBDSV3 SAVING "        RECHARGE" ON UNIT   9 AT TIME STEP  1, STRESS PERIOD  69

 HEAD WILL BE SAVED ON UNIT   37 AT END OF TIME STEP    1, STRESS PERIOD   69

 DRAWDOWN WILL BE SAVED ON UNIT   38 AT END OF TIME STEP    1, STRESS PERIOD   69
1
  VOLUMETRIC BUDGET FOR ENTIRE MODEL AT END OF TIME STEP    1, STRESS PERIOD  69
  ------------------------------------------------------------------------------

     CUMULATIVE VOLUMES      L**3       RATES FOR THIS TIME STEP      L**3/T
     ------------------                 ------------------------

           IN:                                      IN:
           ---                                      ---
             STORAGE =       11089.3975               STORAGE =       4.5079E-05
       CONSTANT HEAD =       18073.9062         CONSTANT HEAD =       1.6912E-03
            RECHARGE =         794.1539              RECHARGE =       1.0213E-04

            TOTAL IN =       29957.4590              TOTAL IN =       1.8384E-03

          OUT:                                     OUT:
          ----                                     ----
             STORAGE =        6087.2749               STORAGE =       4.8103E-04
       CONSTANT HEAD =       23871.0156         CONSTANT HEAD =       1.3574E-03
            RECHARGE =           0.0000              RECHARGE =           0.0000

           TOTAL OUT =       29958.2910             TOTAL OUT =       1.8385E-03

            IN - OUT =          -0.8320              IN - OUT =      -9.5693E-08

 PERCENT DISCREPANCY =          -0.00     PERCENT DISCREPANCY =          -0.01






         TIME SUMMARY AT END OF TIME STEP    1 IN STRESS PERIOD   69
                    SECONDS     MINUTES      HOURS       DAYS        YEARS
                    -----------------------------------------------------------
   TIME STEP LENGTH  86400.      1440.0      24.000      1.0000     2.73785E-03
 STRESS PERIOD TIME  86400.      1440.0      24.000      1.0000     2.73785E-03
         TOTAL TIME 7.77600E+06 1.29600E+05  2160.0      90.000     0.24641    
1

 SOLVING FOR HEAD 
     3 CALLS TO PCG ROUTINE FOR TIME STEP   2 IN STRESS PERIOD   69
    55 TOTAL ITERATIONS

 MAXIMUM HEAD CHANGE FOR EACH ITERATION (1 INDICATES THE FIRST INNER ITERATION):

    HEAD CHANGE    HEAD CHANGE    HEAD CHANGE    HEAD CHANGE    HEAD CHANGE 
   LAYER,ROW,COL  LAYER,ROW,COL  LAYER,ROW,COL  LAYER,ROW,COL  LAYER,ROW,COL
 ---------------------------------------------------------------------------
  1 -0.4453E-01  0  0.2631E-01  0 -0.1629E-01  0  0.1285E-01  0 -0.2013E-01
   (  5, 43,  5)  (  5, 35,  1)  (  5, 31,  2)  (  5, 28,  4)  (  5, 37,  1)
  0  0.1012E-01  0 -0.1096E-01  0  0.1293E-01  0  0.7626E-02  0  0.6034E-02
   (  5, 35,  2)  (  5, 40,  1)  (  5, 37,  1)  (  5, 37,  6)  (  5, 40,  2)
  0 -0.4130E-02  0 -0.4087E-02  0 -0.1845E-02  0  0.2809E-02  0 -0.2686E-02
   (  5, 38,  1)  (  5, 33,  9)  (  5, 30,  1)  (  5, 30,  8)  (  5, 36,  8)
  0 -0.1324E-02  0  0.1355E-02  0 -0.1098E-02  0  0.9774E-03  0  0.6652E-03
   (  5, 34,  1)  (  5, 36,  4)  (  5, 31,  9)  (  5, 29,  9)  (  5, 36,  7)
  0  0.5531E-03  0  0.2710E-03  0 -0.3796E-03  0  0.3189E-03  0 -0.2436E-03
   (  5, 14,  1)  (  5, 33,  4)  (  5, 38,  2)  (  5, 36,  1)  (  5, 39,  1)
  0 -0.1722E-03  0  0.1380E-03  0  0.1245E-03  0 -0.1507E-03  0  0.7474E-04
   (  5, 38,  4)  (  5, 37,  1)  (  5, 35,  3)  (  5, 40,  2)  (  5, 14,  2)
  1 -0.6476E-04  0  0.3005E-04  0  0.6871E-04  0 -0.3894E-04  0 -0.3256E-04
   (  5, 13,  1)  (  5, 28,  1)  (  5, 39,  1)  (  5, 37,  1)  (  5, 41,  2)
  0 -0.3164E-04  0  0.2533E-04  0 -0.2659E-04  0  0.2549E-04  0 -0.1675E-04
   (  5, 34,  3)  (  5, 34,  1)  (  5, 39,  4)  (  5, 13,  1)  (  5, 39,  1)
  0  0.1694E-04  0  0.7478E-05  0 -0.1143E-04  0 -0.6167E-05  0  0.7220E-05
   (  5, 41,  2)  (  5, 29,  2)  (  5, 39,  2)  (  5, 15,  1)  (  5, 29,  8)
  0  0.4670E-05  0  0.3695E-05  0  0.4966E-05  0 -0.4134E-05  0  0.2499E-05
   (  5, 15,  1)  (  5, 33,  1)  (  5, 34,  8)  (  5, 36,  8)  (  5, 36,  6)
  0 -0.1221E-05  0  0.1616E-05  0 -0.1835E-05  0  0.9786E-06  1 -0.9870E-06
   (  5, 31,  3)  (  5, 35,  1)  (  5, 38,  1)  (  5, 35,  1)  (  5, 35,  1)

 MAXIMUM RESIDUAL FOR EACH ITERATION (1 INDICATES THE FIRST INNER ITERATION):

    RESIDUAL       RESIDUAL       RESIDUAL       RESIDUAL       RESIDUAL    
   LAYER,ROW,COL  LAYER,ROW,COL  LAYER,ROW,COL  LAYER,ROW,COL  LAYER,ROW,COL
 ---------------------------------------------------------------------------
  1  0.2475E-03  0  0.1925E-03  0  0.1632E-03  0  0.1335E-03  0  0.1094E-03
   (  4, 44,  2)  (  4, 44,  2)  (  4, 44,  2)  (  4, 35, 35)  (  3, 40, 27)
  0  0.9573E-04  0  0.8110E-04  0  0.6383E-04  0  0.5058E-04  0  0.4051E-04
   (  3, 40, 27)  (  3, 40, 27)  (  3, 40, 27)  (  3, 40, 27)  (  4, 35, 35)
  0  0.3186E-04  0 -0.2388E-04  0 -0.2250E-04  0 -0.1809E-04  0 -0.1400E-04
   (  4, 35, 35)  (  4, 43,  4)  (  4, 43,  4)  (  4, 43,  4)  (  4, 43,  4)
  0 -0.1251E-04  0 -0.1027E-04  0 -0.8349E-05  0 -0.6928E-05  0 -0.5699E-05
   (  4, 43,  4)  (  4, 44,  2)  (  4, 44,  2)  (  4, 34, 35)  (  4, 34, 35)
  0 -0.4580E-05  0 -0.4414E-05  0 -0.3644E-05  0 -0.3347E-05  0 -0.2687E-05
   (  4, 34, 35)  (  4, 34, 35)  (  4, 34, 35)  (  4, 34, 35)  (  4, 34, 35)
  0 -0.2161E-05  0 -0.1934E-05  0 -0.1733E-05  0 -0.1432E-05  0 -0.1064E-05
   (  4, 34, 35)  (  4, 34, 35)  (  4, 34, 35)  (  4, 34, 35)  (  4, 34, 35)
  1 -0.1010E-05  0 -0.9951E-06  0 -0.8509E-06  0 -0.8045E-06  0 -0.7094E-06
   (  4, 34, 35)  (  4, 34, 35)  (  4, 34, 35)  (  4, 34, 35)  (  4, 34, 35)
  0 -0.5816E-06  0 -0.4558E-06  0 -0.3927E-06  0 -0.2758E-06  0 -0.2048E-06
   (  4, 34, 35)  (  4, 34, 35)  (  4, 34, 35)  (  4, 34, 35)  (  4, 34, 35)
  0 -0.1614E-06  0 -0.1510E-06  0  0.1114E-06  0  0.8797E-07  0  0.7269E-07
   (  4, 34, 35)  (  4, 34, 35)  (  4, 35, 35)  (  4, 35, 35)  (  4, 35, 35)
  0  0.5843E-07  0  0.5288E-07  0  0.4012E-07  0  0.3038E-07  0  0.2286E-07
   (  4, 35, 35)  (  4, 35, 35)  (  4, 35, 35)  (  4, 35, 35)  (  4, 35, 35)
  0  0.2103E-07  0  0.1645E-07  0  0.1297E-07  0  0.1057E-07  1  0.1032E-07
   (  4, 35, 35)  (  4, 35, 35)  (  4, 35, 35)  (  4, 35, 35)  (  4, 35, 35)



 OUTPUT CONTROL FOR STRESS PERIOD   69   TIME STEP    2
    SAVE HEAD FOR ALL LAYERS
    SAVE DRAWDOWN FOR ALL LAYERS
    SAVE BUDGET
    PRINT BUDGET
 UBDSV1 SAVING "         STORAGE" ON UNIT   9 AT TIME STEP  2, STRESS PERIOD  69
 UBDSV2 SAVING "   CONSTANT HEAD" ON UNIT   9 AT TIME STEP  2, STRESS PERIOD  69
 UBDSV1 SAVING "FLOW RIGHT FACE " ON UNIT   9 AT TIME STEP  2, STRESS PERIOD  69
 UBDSV1 SAVING "FLOW FRONT FACE " ON UNIT   9 AT TIME STEP  2, STRESS PERIOD  69
 UBDSV1 SAVING "FLOW LOWER FACE " ON UNIT   9 AT TIME STEP  2, STRESS PERIOD  69
 UBDSV3 SAVING "        RECHARGE" ON UNIT   9 AT TIME STEP  2, STRESS PERIOD  69

 HEAD WILL BE SAVED ON UNIT   37 AT END OF TIME STEP    2, STRESS PERIOD   69

 DRAWDOWN WILL BE SAVED ON UNIT   38 AT END OF TIME STEP    2, STRESS PERIOD   69
1
  VOLUMETRIC BUDGET FOR ENTIRE MODEL AT END OF TIME STEP    2, STRESS PERIOD  69
  ------------------------------------------------------------------------------

     CUMULATIVE VOLUMES      L**3       RATES FOR THIS TIME STEP      L**3/T
     ------------------                 ------------------------

           IN:                                      IN:
           ---                                      ---
             STORAGE =       11101.4512               STORAGE =       1.3951E-04
       CONSTANT HEAD =       18218.3594         CONSTANT HEAD =       1.6719E-03
            RECHARGE =         802.9778              RECHARGE =       1.0213E-04

            TOTAL IN =       30122.7891              TOTAL IN =       1.9136E-03

          OUT:                                     OUT:
          ----                                     ----
             STORAGE =        6095.4341               STORAGE =       9.4433E-05
       CONSTANT HEAD =       24028.1953         CONSTANT HEAD =       1.8192E-03
            RECHARGE =           0.0000              RECHARGE =           0.0000

           TOTAL OUT =       30123.6289             TOTAL OUT =       1.9136E-03

            IN - OUT =          -0.8398              IN - OUT =      -9.2899E-08

 PERCENT DISCREPANCY =          -0.00     PERCENT DISCREPANCY =          -0.00






         TIME SUMMARY AT END OF TIME STEP    2 IN STRESS PERIOD   69
                    SECONDS     MINUTES      HOURS       DAYS        YEARS
                    -----------------------------------------------------------
   TIME STEP LENGTH  86400.      1440.0      24.000      1.0000     2.73785E-03
 STRESS PERIOD TIME 1.72800E+05  2880.0      48.000      2.0000     5.47570E-03
         TOTAL TIME 7.86240E+06 1.31040E+05  2184.0      91.000     0.24914    
1
1
                            STRESS PERIOD NO.   70, LENGTH =   86400.00    
                            -----------------------------------------------

                              NUMBER OF TIME STEPS =     1

                               MULTIPLIER FOR DELT =     1.000

                            INITIAL TIME STEP SIZE =   86400.00    

 REUSING RECH FROM LAST STRESS PERIOD

 CHD NO.   LAYER   ROW   COL    START HEAD        END HEAD         IFACE           
 ----------------------------------------------------------------------------------
      1      4      3      1       109.5           109.6           0.000    
      2      5      3      1       109.5           109.6           0.000    
      3      4      3      2       109.5           109.6           0.000    
      4      5      3      2       109.5           109.6           0.000    
      5      4      3      3       109.5           109.6           0.000    
      6      5      3      3       109.5           109.6           0.000    
      7      4      3      4       109.5           109.6           0.000    
      8      5      3      4       109.5           109.6           0.000    
      9      4      3      5       109.5           109.6           0.000    
     10      5      3      5       109.5           109.6           0.000    
     11      4      3      6       109.5           109.6           0.000    
     12      5      3      6       109.5           109.6           0.000    
     13      4      3      7       109.5           109.6           0.000    
     14      5      3      7       109.5           109.6           0.000    
     15      4      3      8       109.5           109.6           0.000    
     16      5      3      8       109.5           109.6           0.000    
     17      4      2      8       109.5           109.6           0.000    
     18      5      2      8       109.5           109.6           0.000    
     19      4      2      9       109.5           109.6           0.000    
     20      5      2      9       109.5           109.6           0.000    
     21      4      2     10       109.5           109.6           0.000    
     22      5      2     10       109.5           109.6           0.000    
     23      4      2     11       109.5           109.6           0.000    
     24      5      2     11       109.5           109.6           0.000    
     25      4      2     12       109.5           109.6           0.000    
     26      5      2     12       109.5           109.6           0.000    
     27      4      2     13       109.5           109.6           0.000    
     28      5      2     13       109.5           109.6           0.000    
     29      4      2     14       109.5           109.6           0.000    
     30      5      2     14       109.5           109.6           0.000    
     31      4      2     15       109.5           109.6           0.000    
     32      5      2     15       109.5           109.6           0.000    
     33      4      2     16       109.5           109.6           0.000    
     34      5      2     16       109.5           109.6           0.000    
     35      4      2     17       109.5           109.6           0.000    
     36      5      2     17       109.5           109.6           0.000    
     37      4      2     18       109.5           109.6           0.000    
     38      5      2     18       109.5           109.6           0.000    
     39      4      2     19       109.5           109.6           0.000    
     40      5      2     19       109.5           109.6           0.000    
     41      4      2     20       109.5           109.6           0.000    
     42      5      2     20       109.5           109.6           0.000    
     43      4      2     21       109.5           109.6           0.000    
     44      5      2     21       109.5           109.6           0.000    
     45      4      2     22       109.5           109.6           0.000    
     46      5      2     22       109.5           109.6           0.000    
     47      4      2     23       109.5           109.6           0.000    
     48      5      2     23       109.5           109.6           0.000    
     49      4      2     24       109.5           109.6           0.000    
     50      5      2     24       109.5           109.6           0.000    
     51      4      2     25       109.5           109.6           0.000    
     52      5      2     25       109.5           109.6           0.000    
     53      4      2     26       109.5           109.6           0.000    
     54      5      2     26       109.5           109.6           0.000    
     55      4      1     26       109.5           109.6           0.000    
     56      5      1     26       109.5           109.6           0.000    
     57      4      1     27       109.5           109.6           0.000    
     58      5      1     27       109.5           109.6           0.000    
     59      4      1     28       109.5           109.6           0.000    
     60      5      1     28       109.5           109.6           0.000    
     61      4      1     29       109.5           109.6           0.000    
     62      5      1     29       109.5           109.6           0.000    
     63      4      1     30       109.5           109.6           0.000    
     64      5      1     30       109.5           109.6           0.000    
     65      4      1     31       109.5           109.6           0.000    
     66      5      1     31       109.5           109.6           0.000    
     67      4      1     32       109.5           109.6           0.000    
     68      5      1     32       109.5           109.6           0.000    
     69      4      1     33       109.5           109.6           0.000    
     70      5      1     33       109.5           109.6           0.000    
     71      4      1     34       109.5           109.6           0.000    
     72      5      1     34       109.5           109.6           0.000    
     73      4      1     35       109.5           109.6           0.000    
     74      5      1     35       109.5           109.6           0.000    
     75      4     36     35       109.4           109.5           0.000    
     76      5     36     35       109.4           109.5           0.000    
     77      4     35     34       109.4           109.5           0.000    
     78      5     35     34       109.4           109.5           0.000    
     79      4     36     34       109.4           109.5           0.000    
     80      5     36     34       109.4           109.5           0.000    
     81      4     36     33       109.4           109.5           0.000    
     82      5     36     33       109.4           109.5           0.000    
     83      4     36     32       109.4           109.5           0.000    
     84      5     36     32       109.4           109.5           0.000    
     85      4     37     32       109.4           109.5           0.000    
     86      5     37     32       109.4           109.5           0.000    
     87      4     37     31       109.4           109.5           0.000    
     88      5     37     31       109.4           109.5           0.000    
     89      4     38     31       109.4           109.5           0.000    
     90      5     38     31       109.4           109.5           0.000    
     91      4     38     30       109.4           109.5           0.000    
     92      5     38     30       109.4           109.5           0.000    
     93      4     39     30       109.4           109.5           0.000    
     94      5     39     30       109.4           109.5           0.000    
     95      4     39     29       109.4           109.5           0.000    
     96      5     39     29       109.4           109.5           0.000    
     97      4     40     29       109.4           109.5           0.000    
     98      5     40     29       109.4           109.5           0.000    
     99      4     40     28       109.4           109.5           0.000    
    100      5     40     28       109.4           109.5           0.000    
    101      4     40     27       109.4           109.5           0.000    
    102      5     40     27       109.4           109.5           0.000    
    103      4     41     27       109.4           109.5           0.000    
    104      5     41     27       109.4           109.5           0.000    
    105      4     41     26       109.4           109.5           0.000    
    106      5     41     26       109.4           109.5           0.000    
    107      4     41     25       109.4           109.5           0.000    
    108      5     41     25       109.4           109.5           0.000    
    109      4     41     24       109.4           109.5           0.000    
    110      5     41     24       109.4           109.5           0.000    
    111      4     41     23       109.4           109.5           0.000    
    112      5     41     23       109.4           109.5           0.000    
    113      4     41     22       109.4           109.5           0.000    
    114      5     41     22       109.4           109.5           0.000    
    115      4     42     22       109.4           109.5           0.000    
    116      5     42     22       109.4           109.5           0.000    
    117      4     42     21       109.4           109.5           0.000    
    118      5     42     21       109.4           109.5           0.000    
    119      4     42     20       109.4           109.5           0.000    
    120      5     42     20       109.4           109.5           0.000    
    121      4     42     19       109.4           109.5           0.000    
    122      5     42     19       109.4           109.5           0.000    
    123      4     43     18       109.4           109.5           0.000    
    124      5     43     18       109.4           109.5           0.000    
    125      4     42     18       109.4           109.5           0.000    
    126      5     42     18       109.4           109.5           0.000    
    127      4     42     17       109.4           109.5           0.000    
    128      5     42     17       109.4           109.5           0.000    
    129      4     42     16       109.4           109.5           0.000    
    130      5     42     16       109.4           109.5           0.000    
    131      4     42     15       109.4           109.5           0.000    
    132      5     42     15       109.4           109.5           0.000    
    133      4     43     15       109.4           109.5           0.000    
    134      5     43     15       109.4           109.5           0.000    
    135      4     43     14       109.4           109.5           0.000    
    136      5     43     14       109.4           109.5           0.000    
    137      4     43     13       109.4           109.5           0.000    
    138      5     43     13       109.4           109.5           0.000    
    139      4     43     12       109.4           109.5           0.000    
    140      5     43     12       109.4           109.5           0.000    
    141      4     43     11       109.4           109.5           0.000    
    142      5     43     11       109.4           109.5           0.000    
    143      4     43     10       109.4           109.5           0.000    
    144      5     43     10       109.4           109.5           0.000    
    145      4     44     10       109.4           109.5           0.000    
    146      5     44     10       109.4           109.5           0.000    
    147      4     44      9       109.4           109.5           0.000    
    148      5     44      9       109.4           109.5           0.000    
    149      4     44      8       109.4           109.5           0.000    
    150      5     44      8       109.4           109.5           0.000    
    151      4     44      7       109.4           109.5           0.000    
    152      5     44      7       109.4           109.5           0.000    
    153      4     44      6       109.4           109.5           0.000    
    154      5     44      6       109.4           109.5           0.000    
    155      4     44      5       109.3           109.5           0.000    
    156      5     44      5       109.3           109.5           0.000    
    157      4     44      4       109.3           109.5           0.000    
    158      5     44      4       109.3           109.5           0.000    
    159      4     44      3       109.3           109.5           0.000    
    160      5     44      3       109.3           109.5           0.000    
    161      4     45      3       109.3           109.5           0.000    
    162      5     45      3       109.3           109.5           0.000    
    163      4     45      2       109.3           109.5           0.000    
    164      5     45      2       109.3           109.5           0.000    
    165      4     45      1       109.3           109.5           0.000    
    166      5     45      1       109.3           109.5           0.000    


    166 TIME-VARIANT SPECIFIED-HEAD CELLS

 SOLVING FOR HEAD 


     4 CALLS TO PCG ROUTINE FOR TIME STEP   1 IN STRESS PERIOD   70
    71 TOTAL ITERATIONS

 MAXIMUM HEAD CHANGE FOR EACH ITERATION (1 INDICATES THE FIRST INNER ITERATION):

    HEAD CHANGE    HEAD CHANGE    HEAD CHANGE    HEAD CHANGE    HEAD CHANGE 
   LAYER,ROW,COL  LAYER,ROW,COL  LAYER,ROW,COL  LAYER,ROW,COL  LAYER,ROW,COL
 ---------------------------------------------------------------------------
  1  0.5008      0 -0.2780      0  0.1590      0 -0.1376      0  0.1794    
   (  5, 43,  5)  (  5, 35,  1)  (  5, 30,  2)  (  5, 41,  2)  (  5, 37,  1)
  0  0.1034      0  0.1188      0 -0.1261      0 -0.7290E-01  0 -0.5500E-01
   (  5, 39,  1)  (  5, 40,  1)  (  5, 37,  1)  (  5, 37,  6)  (  5, 40,  1)
  0 -0.4798E-01  0  0.4830E-01  0 -0.1667E-01  0 -0.2594E-01  0  0.2664E-01
   (  5, 35,  9)  (  5, 33,  9)  (  5, 31,  4)  (  5, 31,  9)  (  5, 36,  8)
  0  0.1421E-01  0 -0.1191E-01  0  0.1010E-01  0 -0.9548E-02  0  0.7784E-02
   (  5, 34,  1)  (  5, 36,  4)  (  5, 31,  9)  (  5, 30, 10)  (  5, 37,  1)
  0 -0.6244E-02  0 -0.5393E-02  0  0.2403E-02  0  0.4327E-02  0 -0.3578E-02
   (  5, 38,  4)  (  5, 32,  4)  (  5, 29,  1)  (  5, 14,  1)  (  5, 13,  1)
  0  0.2106E-02  0 -0.1638E-02  0  0.1164E-02  0  0.9868E-03  0 -0.8753E-03
   (  5, 13,  1)  (  5, 38,  1)  (  5, 40,  2)  (  5, 35,  1)  (  5, 37,  3)
  1  0.8085E-03  0  0.4995E-03  0 -0.4999E-03  0  0.1116E-02  0  0.7142E-03
   (  5, 39,  5)  (  5, 30,  4)  (  5, 35,  1)  (  5, 34,  3)  (  5, 37,  1)
  0 -0.6380E-03  0  0.3163E-03  0 -0.3066E-03  0  0.2851E-03  0 -0.1918E-03
   (  5, 40,  2)  (  5, 39,  4)  (  5, 37,  1)  (  5, 34,  1)  (  5, 31,  9)
  0  0.1739E-03  0 -0.7126E-04  0  0.1037E-03  0  0.8601E-04  0 -0.6973E-04
   (  5, 30,  9)  (  5, 28,  2)  (  5, 39,  2)  (  5, 35,  3)  (  5, 33,  1)
  0  0.7418E-04  0 -0.4792E-04  0 -0.4937E-04  0  0.4678E-04  0  0.1844E-04
   (  5, 37,  1)  (  5, 39,  1)  (  5, 35,  8)  (  5, 41,  1)  (  5, 39,  5)
  0 -0.1339E-04  0  0.1769E-04  0  0.2060E-04  0  0.1246E-04  0 -0.7757E-05
   (  5, 30,  2)  (  5, 33,  8)  (  5, 39,  1)  (  5, 36,  2)  (  5, 37,  5)
  0  0.6229E-05  0  0.5914E-05  0 -0.7671E-05  0 -0.3973E-05  0 -0.4223E-05
   (  5, 37,  2)  (  5, 26,  6)  (  5, 38,  1)  (  5, 32,  3)  (  5, 43,  7)
  1  0.1840E-05  0 -0.2929E-05  0  0.3190E-05  0 -0.3769E-05  0  0.2333E-05
   (  5, 30,  2)  (  5, 42,  2)  (  5, 40,  1)  (  5, 37,  2)  (  5, 38,  4)
  0 -0.1458E-05  0 -0.1572E-05  0  0.1268E-05  0  0.1324E-05  0 -0.7763E-06
   (  5, 23,  4)  (  5, 36,  4)  (  5, 33,  1)  (  5, 13,  1)  (  5, 15,  1)
  1  0.4411E-06
   (  5, 30,  2)

 MAXIMUM RESIDUAL FOR EACH ITERATION (1 INDICATES THE FIRST INNER ITERATION):

    RESIDUAL       RESIDUAL       RESIDUAL       RESIDUAL       RESIDUAL    
   LAYER,ROW,COL  LAYER,ROW,COL  LAYER,ROW,COL  LAYER,ROW,COL  LAYER,ROW,COL
 ---------------------------------------------------------------------------
  1 -0.2499E-02  0 -0.1896E-02  0 -0.1602E-02  0 -0.1407E-02  0 -0.1192E-02
   (  4, 44,  2)  (  4, 44,  2)  (  4, 44,  2)  (  4, 35, 35)  (  4, 35, 35)
  0 -0.1012E-02  0 -0.8545E-03  0 -0.6839E-03  0 -0.5483E-03  0 -0.4199E-03
   (  4, 35, 35)  (  3, 40, 27)  (  3, 40, 27)  (  3, 40, 27)  (  3, 40, 27)
  0 -0.3121E-03  0  0.2518E-03  0  0.2410E-03  0  0.1942E-03  0  0.1509E-03
   (  3, 40, 27)  (  3, 35, 35)  (  3, 35, 35)  (  3, 35, 35)  (  3, 35, 35)
  0  0.1254E-03  0  0.1098E-03  0  0.8300E-04  0  0.7029E-04  0  0.6135E-04
   (  3, 35, 35)  (  4, 43,  4)  (  4, 34, 35)  (  4, 34, 35)  (  4, 34, 35)
  0  0.5585E-04  0  0.4619E-04  0  0.4459E-04  0  0.3491E-04  0  0.2752E-04
   (  4, 34, 35)  (  4, 34, 35)  (  4, 34, 35)  (  4, 34, 35)  (  4, 34, 35)
  0  0.2129E-04  0  0.1722E-04  0  0.1465E-04  0  0.1241E-04  0  0.1007E-04
   (  4, 34, 35)  (  4, 34, 35)  (  4, 34, 35)  (  4, 34, 35)  (  4, 34, 35)
  1  0.9541E-05  0  0.9212E-05  0  0.8778E-05  0  0.7255E-05  0  0.6186E-05
   (  4, 34, 35)  (  4, 34, 35)  (  4, 34, 35)  (  4, 34, 35)  (  4, 34, 35)
  0  0.4328E-05  0  0.3242E-05  0  0.2796E-05  0  0.2063E-05  0  0.1678E-05
   (  4, 34, 35)  (  4, 34, 35)  (  4, 34, 35)  (  4, 34, 35)  (  4, 34, 35)
  0  0.1336E-05  0  0.1280E-05  0  0.9536E-06  0 -0.8272E-06  0 -0.7404E-06
   (  4, 34, 35)  (  4, 34, 35)  (  4, 34, 35)  (  4, 35, 35)  (  4, 35, 35)
  0 -0.6432E-06  0 -0.4829E-06  0 -0.3801E-06  0 -0.2882E-06  0 -0.2230E-06
   (  4, 35, 35)  (  4, 35, 35)  (  4, 35, 35)  (  4, 35, 35)  (  4, 35, 35)
  0 -0.2107E-06  0 -0.1588E-06  0 -0.1175E-06  0 -0.9115E-07  0 -0.8234E-07
   (  4, 35, 35)  (  4, 35, 35)  (  4, 35, 35)  (  4, 35, 35)  (  4, 35, 35)
  0 -0.7099E-07  0 -0.6165E-07  0 -0.5243E-07  0 -0.4252E-07  0 -0.3037E-07
   (  4, 35, 35)  (  4, 35, 35)  (  4, 35, 35)  (  4, 35, 35)  (  4, 35, 35)
  1 -0.3022E-07  0 -0.2720E-07  0 -0.2103E-07  0 -0.1702E-07  0 -0.1355E-07
   (  4, 35, 35)  (  4, 35, 35)  (  4, 35, 35)  (  4, 35, 35)  (  4, 35, 35)
  0 -0.1171E-07  0 -0.1002E-07  0 -0.8898E-08  0 -0.7292E-08  0 -0.5994E-08
   (  4, 35, 35)  (  4, 35, 35)  (  4, 35, 35)  (  4, 35, 35)  (  4, 35, 35)
  1 -0.5950E-08
   (  4, 35, 35)



 OUTPUT CONTROL FOR STRESS PERIOD   70   TIME STEP    1
    SAVE HEAD FOR ALL LAYERS
    SAVE DRAWDOWN FOR ALL LAYERS
    SAVE BUDGET
    PRINT BUDGET
 UBDSV1 SAVING "         STORAGE" ON UNIT   9 AT TIME STEP  1, STRESS PERIOD  70
 UBDSV2 SAVING "   CONSTANT HEAD" ON UNIT   9 AT TIME STEP  1, STRESS PERIOD  70
 UBDSV1 SAVING "FLOW RIGHT FACE " ON UNIT   9 AT TIME STEP  1, STRESS PERIOD  70
 UBDSV1 SAVING "FLOW FRONT FACE " ON UNIT   9 AT TIME STEP  1, STRESS PERIOD  70
 UBDSV1 SAVING "FLOW LOWER FACE " ON UNIT   9 AT TIME STEP  1, STRESS PERIOD  70
 UBDSV3 SAVING "        RECHARGE" ON UNIT   9 AT TIME STEP  1, STRESS PERIOD  70

 HEAD WILL BE SAVED ON UNIT   37 AT END OF TIME STEP    1, STRESS PERIOD   70

 DRAWDOWN WILL BE SAVED ON UNIT   38 AT END OF TIME STEP    1, STRESS PERIOD   70
1
  VOLUMETRIC BUDGET FOR ENTIRE MODEL AT END OF TIME STEP    1, STRESS PERIOD  70
  ------------------------------------------------------------------------------

     CUMULATIVE VOLUMES      L**3       RATES FOR THIS TIME STEP      L**3/T
     ------------------                 ------------------------

           IN:                                      IN:
           ---                                      ---
             STORAGE =       11101.4512               STORAGE =           0.0000
       CONSTANT HEAD =       18489.1562         CONSTANT HEAD =       3.1342E-03
            RECHARGE =         811.8017              RECHARGE =       1.0213E-04

            TOTAL IN =       30402.4082              TOTAL IN =       3.2363E-03

          OUT:                                     OUT:
          ----                                     ----
             STORAGE =        6373.0762               STORAGE =       3.2135E-03
       CONSTANT HEAD =       24030.1797         CONSTANT HEAD =       2.2967E-05
            RECHARGE =           0.0000              RECHARGE =           0.0000

           TOTAL OUT =       30403.2559             TOTAL OUT =       3.2364E-03

            IN - OUT =          -0.8477              IN - OUT =      -7.3807E-08

 PERCENT DISCREPANCY =          -0.00     PERCENT DISCREPANCY =          -0.00






         TIME SUMMARY AT END OF TIME STEP    1 IN STRESS PERIOD   70
                    SECONDS     MINUTES      HOURS       DAYS        YEARS
                    -----------------------------------------------------------
   TIME STEP LENGTH  86400.      1440.0      24.000      1.0000     2.73785E-03
 STRESS PERIOD TIME  86400.      1440.0      24.000      1.0000     2.73785E-03
         TOTAL TIME 7.94880E+06 1.32480E+05  2208.0      92.000     0.25188    
1
1
                            STRESS PERIOD NO.   71, LENGTH =   86400.00    
                            -----------------------------------------------

                              NUMBER OF TIME STEPS =     1

                               MULTIPLIER FOR DELT =     1.000

                            INITIAL TIME STEP SIZE =   86400.00    

 REUSING RECH FROM LAST STRESS PERIOD

 CHD NO.   LAYER   ROW   COL    START HEAD        END HEAD         IFACE           
 ----------------------------------------------------------------------------------
      1      4      3      1       109.6           109.7           0.000    
      2      5      3      1       109.6           109.7           0.000    
      3      4      3      2       109.6           109.7           0.000    
      4      5      3      2       109.6           109.7           0.000    
      5      4      3      3       109.6           109.7           0.000    
      6      5      3      3       109.6           109.7           0.000    
      7      4      3      4       109.6           109.7           0.000    
      8      5      3      4       109.6           109.7           0.000    
      9      4      3      5       109.6           109.7           0.000    
     10      5      3      5       109.6           109.7           0.000    
     11      4      3      6       109.6           109.7           0.000    
     12      5      3      6       109.6           109.7           0.000    
     13      4      3      7       109.6           109.7           0.000    
     14      5      3      7       109.6           109.7           0.000    
     15      4      3      8       109.6           109.7           0.000    
     16      5      3      8       109.6           109.7           0.000    
     17      4      2      8       109.6           109.7           0.000    
     18      5      2      8       109.6           109.7           0.000    
     19      4      2      9       109.6           109.7           0.000    
     20      5      2      9       109.6           109.7           0.000    
     21      4      2     10       109.6           109.7           0.000    
     22      5      2     10       109.6           109.7           0.000    
     23      4      2     11       109.6           109.7           0.000    
     24      5      2     11       109.6           109.7           0.000    
     25      4      2     12       109.6           109.7           0.000    
     26      5      2     12       109.6           109.7           0.000    
     27      4      2     13       109.6           109.7           0.000    
     28      5      2     13       109.6           109.7           0.000    
     29      4      2     14       109.6           109.7           0.000    
     30      5      2     14       109.6           109.7           0.000    
     31      4      2     15       109.6           109.7           0.000    
     32      5      2     15       109.6           109.7           0.000    
     33      4      2     16       109.6           109.7           0.000    
     34      5      2     16       109.6           109.7           0.000    
     35      4      2     17       109.6           109.7           0.000    
     36      5      2     17       109.6           109.7           0.000    
     37      4      2     18       109.6           109.7           0.000    
     38      5      2     18       109.6           109.7           0.000    
     39      4      2     19       109.6           109.7           0.000    
     40      5      2     19       109.6           109.7           0.000    
     41      4      2     20       109.6           109.7           0.000    
     42      5      2     20       109.6           109.7           0.000    
     43      4      2     21       109.6           109.7           0.000    
     44      5      2     21       109.6           109.7           0.000    
     45      4      2     22       109.6           109.7           0.000    
     46      5      2     22       109.6           109.7           0.000    
     47      4      2     23       109.6           109.7           0.000    
     48      5      2     23       109.6           109.7           0.000    
     49      4      2     24       109.6           109.7           0.000    
     50      5      2     24       109.6           109.7           0.000    
     51      4      2     25       109.6           109.7           0.000    
     52      5      2     25       109.6           109.7           0.000    
     53      4      2     26       109.6           109.7           0.000    
     54      5      2     26       109.6           109.7           0.000    
     55      4      1     26       109.6           109.7           0.000    
     56      5      1     26       109.6           109.7           0.000    
     57      4      1     27       109.6           109.7           0.000    
     58      5      1     27       109.6           109.7           0.000    
     59      4      1     28       109.6           109.7           0.000    
     60      5      1     28       109.6           109.7           0.000    
     61      4      1     29       109.6           109.7           0.000    
     62      5      1     29       109.6           109.7           0.000    
     63      4      1     30       109.6           109.7           0.000    
     64      5      1     30       109.6           109.7           0.000    
     65      4      1     31       109.6           109.7           0.000    
     66      5      1     31       109.6           109.7           0.000    
     67      4      1     32       109.6           109.7           0.000    
     68      5      1     32       109.6           109.7           0.000    
     69      4      1     33       109.6           109.7           0.000    
     70      5      1     33       109.6           109.7           0.000    
     71      4      1     34       109.6           109.7           0.000    
     72      5      1     34       109.6           109.7           0.000    
     73      4      1     35       109.6           109.7           0.000    
     74      5      1     35       109.6           109.7           0.000    
     75      4     36     35       109.5           109.7           0.000    
     76      5     36     35       109.5           109.7           0.000    
     77      4     35     34       109.5           109.7           0.000    
     78      5     35     34       109.5           109.7           0.000    
     79      4     36     34       109.5           109.7           0.000    
     80      5     36     34       109.5           109.7           0.000    
     81      4     36     33       109.5           109.7           0.000    
     82      5     36     33       109.5           109.7           0.000    
     83      4     36     32       109.5           109.7           0.000    
     84      5     36     32       109.5           109.7           0.000    
     85      4     37     32       109.5           109.7           0.000    
     86      5     37     32       109.5           109.7           0.000    
     87      4     37     31       109.5           109.7           0.000    
     88      5     37     31       109.5           109.7           0.000    
     89      4     38     31       109.5           109.7           0.000    
     90      5     38     31       109.5           109.7           0.000    
     91      4     38     30       109.5           109.7           0.000    
     92      5     38     30       109.5           109.7           0.000    
     93      4     39     30       109.5           109.7           0.000    
     94      5     39     30       109.5           109.7           0.000    
     95      4     39     29       109.5           109.7           0.000    
     96      5     39     29       109.5           109.7           0.000    
     97      4     40     29       109.5           109.7           0.000    
     98      5     40     29       109.5           109.7           0.000    
     99      4     40     28       109.5           109.7           0.000    
    100      5     40     28       109.5           109.7           0.000    
    101      4     40     27       109.5           109.7           0.000    
    102      5     40     27       109.5           109.7           0.000    
    103      4     41     27       109.5           109.7           0.000    
    104      5     41     27       109.5           109.7           0.000    
    105      4     41     26       109.5           109.7           0.000    
    106      5     41     26       109.5           109.7           0.000    
    107      4     41     25       109.5           109.7           0.000    
    108      5     41     25       109.5           109.7           0.000    
    109      4     41     24       109.5           109.7           0.000    
    110      5     41     24       109.5           109.7           0.000    
    111      4     41     23       109.5           109.7           0.000    
    112      5     41     23       109.5           109.7           0.000    
    113      4     41     22       109.5           109.7           0.000    
    114      5     41     22       109.5           109.7           0.000    
    115      4     42     22       109.5           109.7           0.000    
    116      5     42     22       109.5           109.7           0.000    
    117      4     42     21       109.5           109.7           0.000    
    118      5     42     21       109.5           109.7           0.000    
    119      4     42     20       109.5           109.7           0.000    
    120      5     42     20       109.5           109.7           0.000    
    121      4     42     19       109.5           109.7           0.000    
    122      5     42     19       109.5           109.7           0.000    
    123      4     43     18       109.5           109.7           0.000    
    124      5     43     18       109.5           109.7           0.000    
    125      4     42     18       109.5           109.7           0.000    
    126      5     42     18       109.5           109.7           0.000    
    127      4     42     17       109.5           109.7           0.000    
    128      5     42     17       109.5           109.7           0.000    
    129      4     42     16       109.5           109.7           0.000    
    130      5     42     16       109.5           109.7           0.000    
    131      4     42     15       109.5           109.7           0.000    
    132      5     42     15       109.5           109.7           0.000    
    133      4     43     15       109.5           109.7           0.000    
    134      5     43     15       109.5           109.7           0.000    
    135      4     43     14       109.5           109.7           0.000    
    136      5     43     14       109.5           109.7           0.000    
    137      4     43     13       109.5           109.7           0.000    
    138      5     43     13       109.5           109.7           0.000    
    139      4     43     12       109.5           109.7           0.000    
    140      5     43     12       109.5           109.7           0.000    
    141      4     43     11       109.5           109.7           0.000    
    142      5     43     11       109.5           109.7           0.000    
    143      4     43     10       109.5           109.7           0.000    
    144      5     43     10       109.5           109.7           0.000    
    145      4     44     10       109.5           109.7           0.000    
    146      5     44     10       109.5           109.7           0.000    
    147      4     44      9       109.5           109.7           0.000    
    148      5     44      9       109.5           109.7           0.000    
    149      4     44      8       109.5           109.7           0.000    
    150      5     44      8       109.5           109.7           0.000    
    151      4     44      7       109.5           109.7           0.000    
    152      5     44      7       109.5           109.7           0.000    
    153      4     44      6       109.5           109.7           0.000    
    154      5     44      6       109.5           109.7           0.000    
    155      4     44      5       109.5           109.7           0.000    
    156      5     44      5       109.5           109.7           0.000    
    157      4     44      4       109.5           109.7           0.000    
    158      5     44      4       109.5           109.7           0.000    
    159      4     44      3       109.5           109.7           0.000    
    160      5     44      3       109.5           109.7           0.000    
    161      4     45      3       109.5           109.7           0.000    
    162      5     45      3       109.5           109.7           0.000    
    163      4     45      2       109.5           109.7           0.000    
    164      5     45      2       109.5           109.7           0.000    
    165      4     45      1       109.5           109.7           0.000    
    166      5     45      1       109.5           109.7           0.000    


    166 TIME-VARIANT SPECIFIED-HEAD CELLS

 SOLVING FOR HEAD 


     4 CALLS TO PCG ROUTINE FOR TIME STEP   1 IN STRESS PERIOD   71
    72 TOTAL ITERATIONS

 MAXIMUM HEAD CHANGE FOR EACH ITERATION (1 INDICATES THE FIRST INNER ITERATION):

    HEAD CHANGE    HEAD CHANGE    HEAD CHANGE    HEAD CHANGE    HEAD CHANGE 
   LAYER,ROW,COL  LAYER,ROW,COL  LAYER,ROW,COL  LAYER,ROW,COL  LAYER,ROW,COL
 ---------------------------------------------------------------------------
  1  0.5920      0 -0.3222      0  0.1831      0 -0.1623      0  0.2041    
   (  5, 43,  5)  (  5, 35,  1)  (  5, 30,  2)  (  5, 41,  2)  (  5, 37,  1)
  0  0.1212      0  0.1365      0 -0.1482      0 -0.8480E-01  0 -0.6663E-01
   (  5, 39,  1)  (  5, 40,  1)  (  5, 37,  1)  (  5, 37,  6)  (  5, 40,  1)
  0 -0.6033E-01  0  0.4608E-01  0 -0.3021E-01  0 -0.3509E-01  0  0.2925E-01
   (  5, 35,  9)  (  5, 33,  9)  (  5, 29,  3)  (  5, 30,  9)  (  5, 36,  8)
  0 -0.1491E-01  0  0.1651E-01  0 -0.1193E-01  0  0.9326E-02  0 -0.9748E-02
   (  5, 35,  4)  (  5, 34,  1)  (  5, 15,  1)  (  5, 38,  7)  (  5, 38,  4)
  0  0.6739E-02  0 -0.5019E-02  0  0.3873E-02  0  0.5116E-02  0 -0.3955E-02
   (  5, 37,  1)  (  5, 32,  4)  (  5, 29,  2)  (  5, 14,  1)  (  5, 13,  1)
  0 -0.2948E-02  0  0.2102E-02  0 -0.1281E-02  0 -0.7521E-03  0  0.1229E-02
   (  5, 37,  1)  (  5, 40,  2)  (  5, 12,  1)  (  5, 36,  3)  (  5, 36,  1)
  1 -0.8296E-03  0  0.9174E-03  0  0.1284E-02  0 -0.7941E-03  0 -0.6889E-03
   (  5, 34,  1)  (  5, 30,  1)  (  5, 35,  3)  (  5, 34,  1)  (  5, 38,  4)
  0  0.7602E-03  0 -0.4930E-03  0  0.3312E-03  0  0.4136E-03  0 -0.2164E-03
   (  5, 39,  3)  (  5, 30,  9)  (  5, 28,  9)  (  5, 40,  1)  (  5, 31,  9)
  0 -0.1543E-03  0  0.1670E-03  0  0.1596E-03  0 -0.1022E-03  0 -0.8321E-04
   (  5, 32,  2)  (  5, 38,  4)  (  5, 39,  2)  (  5, 32,  8)  (  5, 14,  1)
  0  0.5144E-04  0 -0.7690E-04  0 -0.6424E-04  0  0.6040E-04  0  0.2787E-04
   (  5, 34,  3)  (  5, 37,  4)  (  5, 39,  1)  (  5, 41,  1)  (  5, 29,  2)
  0 -0.2722E-04  0  0.2507E-04  0  0.2630E-04  0 -0.1335E-04  0  0.1636E-04
   (  5, 32,  5)  (  5, 33,  8)  (  5, 39,  1)  (  5, 39,  4)  (  5, 37,  2)
  0 -0.1263E-04  0  0.5066E-05  0 -0.7018E-05  0 -0.5355E-05  0  0.3926E-05
   (  5, 38,  6)  (  5, 37,  4)  (  5, 32,  1)  (  5, 43,  6)  (  5, 31,  2)
  1 -0.4067E-05  0  0.3242E-05  0 -0.3616E-05  0 -0.4141E-05  0  0.3909E-05
   (  5, 33,  3)  (  5, 36,  1)  (  5, 39,  1)  (  5, 37,  3)  (  5, 35,  3)
  0 -0.3506E-05  0  0.2461E-05  0 -0.2010E-05  0  0.1537E-05  0  0.1185E-05
   (  5, 37,  2)  (  5, 37,  2)  (  5, 38,  6)  (  5, 13,  1)  (  5, 32, 11)
  0 -0.7874E-06  1  0.6770E-06
   (  5, 34,  5)  (  5, 29,  2)

 MAXIMUM RESIDUAL FOR EACH ITERATION (1 INDICATES THE FIRST INNER ITERATION):

    RESIDUAL       RESIDUAL       RESIDUAL       RESIDUAL       RESIDUAL    
   LAYER,ROW,COL  LAYER,ROW,COL  LAYER,ROW,COL  LAYER,ROW,COL  LAYER,ROW,COL
 ---------------------------------------------------------------------------
  1 -0.2464E-02  0 -0.1824E-02  0 -0.1623E-02  0 -0.1461E-02  0 -0.1224E-02
   (  4, 44,  2)  (  4, 44,  2)  (  4, 35, 35)  (  4, 35, 35)  (  4, 35, 35)
  0 -0.1021E-02  0 -0.8468E-03  0 -0.6640E-03  0 -0.5223E-03  0  0.4295E-03
   (  4, 35, 35)  (  3, 40, 27)  (  3, 40, 27)  (  3, 40, 27)  (  4, 43,  4)
  0  0.3491E-03  0  0.3036E-03  0  0.2716E-03  0  0.2143E-03  0  0.1653E-03
   (  4, 43,  4)  (  4, 43,  4)  (  4, 43,  4)  (  4, 43,  4)  (  4, 43,  4)
  0  0.1496E-03  0  0.1303E-03  0  0.1032E-03  0  0.8343E-04  0  0.6505E-04
   (  4, 44,  2)  (  4, 44,  2)  (  4, 44,  2)  (  4, 44,  2)  (  4, 44,  2)
  0  0.5727E-04  0  0.4668E-04  0  0.4398E-04  0  0.3443E-04  0  0.2709E-04
   (  4, 44,  2)  (  4, 34, 35)  (  4, 34, 35)  (  4, 34, 35)  (  4, 34, 35)
  0  0.2283E-04  0  0.1934E-04  0  0.1440E-04  0  0.1357E-04  0  0.9580E-05
   (  4, 34, 35)  (  4, 34, 35)  (  4, 34, 35)  (  4, 34, 35)  (  4, 34, 35)
  1  0.9080E-05  0  0.8557E-05  0  0.6778E-05  0  0.5812E-05  0  0.4044E-05
   (  4, 34, 35)  (  4, 34, 35)  (  4, 34, 35)  (  4, 34, 35)  (  4, 34, 35)
  0  0.3476E-05  0  0.2882E-05  0  0.2525E-05  0  0.2161E-05  0  0.1879E-05
   (  4, 34, 35)  (  4, 34, 35)  (  4, 34, 35)  (  4, 34, 35)  (  4, 34, 35)
  0  0.1672E-05  0  0.1485E-05  0  0.1155E-05  0  0.9310E-06  0  0.6443E-06
   (  4, 34, 35)  (  4, 34, 35)  (  4, 34, 35)  (  4, 34, 35)  (  4, 34, 35)
  0  0.5889E-06  0 -0.4524E-06  0 -0.3629E-06  0 -0.2795E-06  0 -0.2557E-06
   (  4, 34, 35)  (  4, 35, 35)  (  4, 35, 35)  (  4, 35, 35)  (  4, 35, 35)
  0 -0.2144E-06  0 -0.1685E-06  0 -0.1350E-06  0 -0.1204E-06  0 -0.9702E-07
   (  4, 35, 35)  (  4, 35, 35)  (  4, 35, 35)  (  4, 35, 35)  (  4, 35, 35)
  0 -0.7501E-07  0 -0.6847E-07  0 -0.5577E-07  0 -0.3905E-07  0 -0.3399E-07
   (  4, 35, 35)  (  4, 35, 35)  (  4, 35, 35)  (  4, 35, 35)  (  4, 35, 35)
  1 -0.3304E-07  0 -0.3164E-07  0 -0.2842E-07  0 -0.2333E-07  0 -0.1917E-07
   (  4, 35, 35)  (  4, 35, 35)  (  4, 35, 35)  (  4, 35, 35)  (  4, 35, 35)
  0 -0.1377E-07  0 -0.1242E-07  0 -0.1063E-07  0 -0.9106E-08  0 -0.7816E-08
   (  4, 35, 35)  (  4, 35, 35)  (  4, 35, 35)  (  4, 35, 35)  (  4, 35, 35)
  0 -0.7237E-08  1 -0.7205E-08
   (  4, 35, 35)  (  4, 35, 35)



 OUTPUT CONTROL FOR STRESS PERIOD   71   TIME STEP    1
    SAVE HEAD FOR ALL LAYERS
    SAVE DRAWDOWN FOR ALL LAYERS
    SAVE BUDGET
    PRINT BUDGET
 UBDSV1 SAVING "         STORAGE" ON UNIT   9 AT TIME STEP  1, STRESS PERIOD  71
 UBDSV2 SAVING "   CONSTANT HEAD" ON UNIT   9 AT TIME STEP  1, STRESS PERIOD  71
 UBDSV1 SAVING "FLOW RIGHT FACE " ON UNIT   9 AT TIME STEP  1, STRESS PERIOD  71
 UBDSV1 SAVING "FLOW FRONT FACE " ON UNIT   9 AT TIME STEP  1, STRESS PERIOD  71
 UBDSV1 SAVING "FLOW LOWER FACE " ON UNIT   9 AT TIME STEP  1, STRESS PERIOD  71
 UBDSV3 SAVING "        RECHARGE" ON UNIT   9 AT TIME STEP  1, STRESS PERIOD  71

 HEAD WILL BE SAVED ON UNIT   37 AT END OF TIME STEP    1, STRESS PERIOD   71

 DRAWDOWN WILL BE SAVED ON UNIT   38 AT END OF TIME STEP    1, STRESS PERIOD   71
1
  VOLUMETRIC BUDGET FOR ENTIRE MODEL AT END OF TIME STEP    1, STRESS PERIOD  71
  ------------------------------------------------------------------------------

     CUMULATIVE VOLUMES      L**3       RATES FOR THIS TIME STEP      L**3/T
     ------------------                 ------------------------

           IN:                                      IN:
           ---                                      ---
             STORAGE =       11101.4512               STORAGE =           0.0000
       CONSTANT HEAD =       18934.7891         CONSTANT HEAD =       5.1578E-03
            RECHARGE =         820.6256              RECHARGE =       1.0213E-04

            TOTAL IN =       30856.8652              TOTAL IN =       5.2599E-03

          OUT:                                     OUT:
          ----                                     ----
             STORAGE =        6827.5361               STORAGE =       5.2600E-03
       CONSTANT HEAD =       24030.1797         CONSTANT HEAD =           0.0000
            RECHARGE =           0.0000              RECHARGE =           0.0000

           TOTAL OUT =       30857.7148             TOTAL OUT =       5.2600E-03

            IN - OUT =          -0.8496              IN - OUT =      -3.2131E-08

 PERCENT DISCREPANCY =          -0.00     PERCENT DISCREPANCY =          -0.00






         TIME SUMMARY AT END OF TIME STEP    1 IN STRESS PERIOD   71
                    SECONDS     MINUTES      HOURS       DAYS        YEARS
                    -----------------------------------------------------------
   TIME STEP LENGTH  86400.      1440.0      24.000      1.0000     2.73785E-03
 STRESS PERIOD TIME  86400.      1440.0      24.000      1.0000     2.73785E-03
         TOTAL TIME 8.03520E+06 1.33920E+05  2232.0      93.000     0.25462    
1
1
                            STRESS PERIOD NO.   72, LENGTH =   86400.00    
                            -----------------------------------------------

                              NUMBER OF TIME STEPS =     1

                               MULTIPLIER FOR DELT =     1.000

                            INITIAL TIME STEP SIZE =   86400.00    

 REUSING RECH FROM LAST STRESS PERIOD

 CHD NO.   LAYER   ROW   COL    START HEAD        END HEAD         IFACE           
 ----------------------------------------------------------------------------------
      1      4      3      1       109.7           109.8           0.000    
      2      5      3      1       109.7           109.8           0.000    
      3      4      3      2       109.7           109.8           0.000    
      4      5      3      2       109.7           109.8           0.000    
      5      4      3      3       109.7           109.8           0.000    
      6      5      3      3       109.7           109.8           0.000    
      7      4      3      4       109.7           109.8           0.000    
      8      5      3      4       109.7           109.8           0.000    
      9      4      3      5       109.7           109.8           0.000    
     10      5      3      5       109.7           109.8           0.000    
     11      4      3      6       109.7           109.8           0.000    
     12      5      3      6       109.7           109.8           0.000    
     13      4      3      7       109.7           109.8           0.000    
     14      5      3      7       109.7           109.8           0.000    
     15      4      3      8       109.7           109.8           0.000    
     16      5      3      8       109.7           109.8           0.000    
     17      4      2      8       109.7           109.8           0.000    
     18      5      2      8       109.7           109.8           0.000    
     19      4      2      9       109.7           109.8           0.000    
     20      5      2      9       109.7           109.8           0.000    
     21      4      2     10       109.7           109.8           0.000    
     22      5      2     10       109.7           109.8           0.000    
     23      4      2     11       109.7           109.8           0.000    
     24      5      2     11       109.7           109.8           0.000    
     25      4      2     12       109.7           109.8           0.000    
     26      5      2     12       109.7           109.8           0.000    
     27      4      2     13       109.7           109.8           0.000    
     28      5      2     13       109.7           109.8           0.000    
     29      4      2     14       109.7           109.8           0.000    
     30      5      2     14       109.7           109.8           0.000    
     31      4      2     15       109.7           109.8           0.000    
     32      5      2     15       109.7           109.8           0.000    
     33      4      2     16       109.7           109.8           0.000    
     34      5      2     16       109.7           109.8           0.000    
     35      4      2     17       109.7           109.8           0.000    
     36      5      2     17       109.7           109.8           0.000    
     37      4      2     18       109.7           109.8           0.000    
     38      5      2     18       109.7           109.8           0.000    
     39      4      2     19       109.7           109.8           0.000    
     40      5      2     19       109.7           109.8           0.000    
     41      4      2     20       109.7           109.8           0.000    
     42      5      2     20       109.7           109.8           0.000    
     43      4      2     21       109.7           109.8           0.000    
     44      5      2     21       109.7           109.8           0.000    
     45      4      2     22       109.7           109.8           0.000    
     46      5      2     22       109.7           109.8           0.000    
     47      4      2     23       109.7           109.8           0.000    
     48      5      2     23       109.7           109.8           0.000    
     49      4      2     24       109.7           109.8           0.000    
     50      5      2     24       109.7           109.8           0.000    
     51      4      2     25       109.7           109.8           0.000    
     52      5      2     25       109.7           109.8           0.000    
     53      4      2     26       109.7           109.8           0.000    
     54      5      2     26       109.7           109.8           0.000    
     55      4      1     26       109.7           109.8           0.000    
     56      5      1     26       109.7           109.8           0.000    
     57      4      1     27       109.7           109.8           0.000    
     58      5      1     27       109.7           109.8           0.000    
     59      4      1     28       109.7           109.8           0.000    
     60      5      1     28       109.7           109.8           0.000    
     61      4      1     29       109.7           109.8           0.000    
     62      5      1     29       109.7           109.8           0.000    
     63      4      1     30       109.7           109.8           0.000    
     64      5      1     30       109.7           109.8           0.000    
     65      4      1     31       109.7           109.8           0.000    
     66      5      1     31       109.7           109.8           0.000    
     67      4      1     32       109.7           109.8           0.000    
     68      5      1     32       109.7           109.8           0.000    
     69      4      1     33       109.7           109.8           0.000    
     70      5      1     33       109.7           109.8           0.000    
     71      4      1     34       109.7           109.8           0.000    
     72      5      1     34       109.7           109.8           0.000    
     73      4      1     35       109.7           109.8           0.000    
     74      5      1     35       109.7           109.8           0.000    
     75      4     36     35       109.7           109.9           0.000    
     76      5     36     35       109.7           109.9           0.000    
     77      4     35     34       109.7           109.9           0.000    
     78      5     35     34       109.7           109.9           0.000    
     79      4     36     34       109.7           109.9           0.000    
     80      5     36     34       109.7           109.9           0.000    
     81      4     36     33       109.7           109.9           0.000    
     82      5     36     33       109.7           109.9           0.000    
     83      4     36     32       109.7           109.9           0.000    
     84      5     36     32       109.7           109.9           0.000    
     85      4     37     32       109.7           109.9           0.000    
     86      5     37     32       109.7           109.9           0.000    
     87      4     37     31       109.7           109.9           0.000    
     88      5     37     31       109.7           109.9           0.000    
     89      4     38     31       109.7           109.9           0.000    
     90      5     38     31       109.7           109.9           0.000    
     91      4     38     30       109.7           109.9           0.000    
     92      5     38     30       109.7           109.9           0.000    
     93      4     39     30       109.7           109.9           0.000    
     94      5     39     30       109.7           109.9           0.000    
     95      4     39     29       109.7           109.9           0.000    
     96      5     39     29       109.7           109.9           0.000    
     97      4     40     29       109.7           109.9           0.000    
     98      5     40     29       109.7           109.9           0.000    
     99      4     40     28       109.7           109.9           0.000    
    100      5     40     28       109.7           109.9           0.000    
    101      4     40     27       109.7           109.9           0.000    
    102      5     40     27       109.7           109.9           0.000    
    103      4     41     27       109.7           109.9           0.000    
    104      5     41     27       109.7           109.9           0.000    
    105      4     41     26       109.7           109.9           0.000    
    106      5     41     26       109.7           109.9           0.000    
    107      4     41     25       109.7           109.9           0.000    
    108      5     41     25       109.7           109.9           0.000    
    109      4     41     24       109.7           109.9           0.000    
    110      5     41     24       109.7           109.9           0.000    
    111      4     41     23       109.7           109.9           0.000    
    112      5     41     23       109.7           109.9           0.000    
    113      4     41     22       109.7           109.9           0.000    
    114      5     41     22       109.7           109.9           0.000    
    115      4     42     22       109.7           109.9           0.000    
    116      5     42     22       109.7           109.9           0.000    
    117      4     42     21       109.7           109.9           0.000    
    118      5     42     21       109.7           109.9           0.000    
    119      4     42     20       109.7           109.9           0.000    
    120      5     42     20       109.7           109.9           0.000    
    121      4     42     19       109.7           109.9           0.000    
    122      5     42     19       109.7           109.9           0.000    
    123      4     43     18       109.7           109.9           0.000    
    124      5     43     18       109.7           109.9           0.000    
    125      4     42     18       109.7           109.9           0.000    
    126      5     42     18       109.7           109.9           0.000    
    127      4     42     17       109.7           109.9           0.000    
    128      5     42     17       109.7           109.9           0.000    
    129      4     42     16       109.7           109.9           0.000    
    130      5     42     16       109.7           109.9           0.000    
    131      4     42     15       109.7           109.9           0.000    
    132      5     42     15       109.7           109.9           0.000    
    133      4     43     15       109.7           109.9           0.000    
    134      5     43     15       109.7           109.9           0.000    
    135      4     43     14       109.7           109.9           0.000    
    136      5     43     14       109.7           109.9           0.000    
    137      4     43     13       109.7           109.9           0.000    
    138      5     43     13       109.7           109.9           0.000    
    139      4     43     12       109.7           109.9           0.000    
    140      5     43     12       109.7           109.9           0.000    
    141      4     43     11       109.7           109.9           0.000    
    142      5     43     11       109.7           109.9           0.000    
    143      4     43     10       109.7           109.9           0.000    
    144      5     43     10       109.7           109.9           0.000    
    145      4     44     10       109.7           109.9           0.000    
    146      5     44     10       109.7           109.9           0.000    
    147      4     44      9       109.7           109.9           0.000    
    148      5     44      9       109.7           109.9           0.000    
    149      4     44      8       109.7           109.9           0.000    
    150      5     44      8       109.7           109.9           0.000    
    151      4     44      7       109.7           109.9           0.000    
    152      5     44      7       109.7           109.9           0.000    
    153      4     44      6       109.7           109.9           0.000    
    154      5     44      6       109.7           109.9           0.000    
    155      4     44      5       109.7           109.9           0.000    
    156      5     44      5       109.7           109.9           0.000    
    157      4     44      4       109.7           109.9           0.000    
    158      5     44      4       109.7           109.9           0.000    
    159      4     44      3       109.7           109.9           0.000    
    160      5     44      3       109.7           109.9           0.000    
    161      4     45      3       109.7           109.9           0.000    
    162      5     45      3       109.7           109.9           0.000    
    163      4     45      2       109.7           109.9           0.000    
    164      5     45      2       109.7           109.9           0.000    
    165      4     45      1       109.7           109.9           0.000    
    166      5     45      1       109.7           109.9           0.000    


    166 TIME-VARIANT SPECIFIED-HEAD CELLS

 SOLVING FOR HEAD 


     4 CALLS TO PCG ROUTINE FOR TIME STEP   1 IN STRESS PERIOD   72
    73 TOTAL ITERATIONS

 MAXIMUM HEAD CHANGE FOR EACH ITERATION (1 INDICATES THE FIRST INNER ITERATION):

    HEAD CHANGE    HEAD CHANGE    HEAD CHANGE    HEAD CHANGE    HEAD CHANGE 
   LAYER,ROW,COL  LAYER,ROW,COL  LAYER,ROW,COL  LAYER,ROW,COL  LAYER,ROW,COL
 ---------------------------------------------------------------------------
  1  0.7378      0 -0.3972      0  0.2260      0 -0.2022      0  0.2466    
   (  5, 43,  5)  (  5, 35,  1)  (  5, 30,  2)  (  5, 41,  2)  (  5, 37,  1)
  0  0.1555      0  0.1695      0 -0.1815      0 -0.1047      0 -0.8137E-01
   (  5, 39,  1)  (  5, 40,  1)  (  5, 37,  1)  (  5, 37,  6)  (  5, 40,  1)
  0 -0.7690E-01  0  0.4142E-01  0  0.3892E-01  0 -0.4457E-01  0  0.3474E-01
   (  5, 35,  9)  (  5, 32,  8)  (  5, 33, 10)  (  5, 30,  9)  (  5, 36,  8)
  0  0.2239E-01  0 -0.1805E-01  0 -0.1502E-01  0 -0.1144E-01  0 -0.1227E-01
   (  5, 34,  1)  (  5, 35,  4)  (  5, 15,  1)  (  5, 30, 10)  (  5, 38,  4)
  0  0.5122E-02  0 -0.7926E-02  0  0.6757E-02  0  0.6424E-02  0 -0.5112E-02
   (  5, 34,  3)  (  5, 32,  4)  (  5, 34,  7)  (  5, 14,  1)  (  5, 13,  1)
  0  0.3183E-02  0  0.2199E-02  0 -0.1802E-02  0  0.1390E-02  0  0.1115E-02
   (  5, 13,  1)  (  5, 39,  4)  (  5, 35,  3)  (  5, 34,  4)  (  5, 33,  3)
  1 -0.1038E-02  0  0.1370E-02  0  0.1734E-02  0 -0.1866E-02  0 -0.1701E-02
   (  5, 31,  2)  (  5, 29,  5)  (  5, 34,  3)  (  5, 39,  2)  (  5, 12,  1)
  0  0.1254E-02  0 -0.7616E-03  0 -0.6253E-03  0  0.4600E-03  0  0.4183E-03
   (  5, 13,  1)  (  5, 37,  1)  (  5, 13,  1)  (  5, 33, 10)  (  5, 39,  1)
  0  0.1622E-03  0 -0.2837E-03  0  0.2469E-03  0 -0.1439E-03  0  0.1339E-03
   (  5, 28,  1)  (  5, 41,  2)  (  5, 39,  1)  (  5, 41,  2)  (  5, 27, 12)
  0  0.1021E-03  0 -0.1070E-03  0 -0.8849E-04  0  0.9136E-04  0  0.3628E-04
   (  5, 36,  1)  (  5, 37,  4)  (  5, 33,  8)  (  5, 36,  9)  (  5, 31,  1)
  0 -0.6618E-04  0  0.4761E-04  0 -0.2711E-04  0  0.2747E-04  0 -0.2379E-04
   (  5, 37,  7)  (  5, 38,  6)  (  5, 40,  6)  (  5, 37,  2)  (  5, 40,  1)
  0 -0.2087E-04  0  0.1891E-04  0 -0.1634E-04  0  0.5378E-05  0  0.5979E-05
   (  5, 37,  1)  (  5, 42,  2)  (  5, 43,  5)  (  5, 34,  1)  (  5, 28,  3)
  1 -0.4913E-05  0 -0.5069E-05  0  0.6439E-05  0 -0.6825E-05  0  0.7179E-05
   (  5, 30,  2)  (  5, 36,  6)  (  5, 35,  2)  (  5, 23, 13)  (  5, 39,  2)
  0 -0.4138E-05  0  0.3276E-05  0 -0.2004E-05  0  0.2511E-05  0  0.1388E-05
   (  5, 35,  1)  (  5, 38,  5)  (  5, 28,  6)  (  5, 33,  1)  (  5, 35,  6)
  0  0.1746E-05  0 -0.9344E-06  1  0.6811E-06
   (  5, 37,  2)  (  5, 33,  6)  (  5, 31,  2)

 MAXIMUM RESIDUAL FOR EACH ITERATION (1 INDICATES THE FIRST INNER ITERATION):

    RESIDUAL       RESIDUAL       RESIDUAL       RESIDUAL       RESIDUAL    
   LAYER,ROW,COL  LAYER,ROW,COL  LAYER,ROW,COL  LAYER,ROW,COL  LAYER,ROW,COL
 ---------------------------------------------------------------------------
  1 -0.3089E-02  0 -0.2291E-02  0 -0.2045E-02  0 -0.1845E-02  0 -0.1555E-02
   (  4, 44,  2)  (  4, 44,  2)  (  4, 35, 35)  (  4, 35, 35)  (  4, 35, 35)
  0 -0.1298E-02  0 -0.1070E-02  0 -0.8411E-03  0 -0.6617E-03  0  0.5298E-03
   (  4, 35, 35)  (  3, 40, 27)  (  3, 40, 27)  (  3, 40, 27)  (  4, 43,  4)
  0  0.4325E-03  0  0.3954E-03  0  0.3385E-03  0  0.2685E-03  0  0.2081E-03
   (  4, 43,  4)  (  4, 43,  4)  (  4, 43,  4)  (  4, 43,  4)  (  4, 43,  4)
  0  0.1757E-03  0  0.1601E-03  0  0.1276E-03  0  0.1034E-03  0  0.8092E-04
   (  4, 44,  2)  (  4, 44,  2)  (  4, 44,  2)  (  4, 44,  2)  (  4, 44,  2)
  0  0.7546E-04  0  0.6623E-04  0  0.5593E-04  0  0.4381E-04  0  0.3433E-04
   (  4, 44,  2)  (  4, 44,  2)  (  4, 34, 35)  (  4, 34, 35)  (  4, 34, 35)
  0  0.2644E-04  0  0.2326E-04  0  0.2015E-04  0  0.1735E-04  0  0.1570E-04
   (  4, 34, 35)  (  4, 34, 35)  (  4, 34, 35)  (  4, 34, 35)  (  4, 34, 35)
  1  0.1562E-04  0  0.1410E-04  0  0.1254E-04  0  0.1095E-04  0  0.7653E-05
   (  4, 34, 35)  (  4, 34, 35)  (  4, 34, 35)  (  4, 34, 35)  (  4, 34, 35)
  0  0.6137E-05  0  0.5620E-05  0  0.4625E-05  0  0.4042E-05  0  0.3365E-05
   (  4, 34, 35)  (  4, 34, 35)  (  4, 34, 35)  (  4, 34, 35)  (  4, 34, 35)
  0  0.3251E-05  0  0.2744E-05  0  0.2239E-05  0  0.1685E-05  0  0.1287E-05
   (  4, 34, 35)  (  4, 34, 35)  (  4, 34, 35)  (  4, 34, 35)  (  4, 34, 35)
  0  0.1141E-05  0 -0.8607E-06  0 -0.6464E-06  0 -0.4962E-06  0 -0.4718E-06
   (  4, 34, 35)  (  4, 35, 35)  (  4, 35, 35)  (  4, 35, 35)  (  4, 35, 35)
  0 -0.3767E-06  0 -0.3046E-06  0 -0.2573E-06  0 -0.2320E-06  0 -0.1881E-06
   (  4, 35, 35)  (  4, 35, 35)  (  4, 35, 35)  (  4, 35, 35)  (  4, 35, 35)
  0 -0.1588E-06  0 -0.1214E-06  0 -0.7405E-07  0 -0.6784E-07  0 -0.5123E-07
   (  4, 35, 35)  (  4, 35, 35)  (  4, 35, 35)  (  4, 35, 35)  (  4, 35, 35)
  1 -0.5107E-07  0 -0.4660E-07  0 -0.4398E-07  0 -0.3176E-07  0 -0.2568E-07
   (  4, 35, 35)  (  4, 35, 35)  (  4, 35, 35)  (  4, 35, 35)  (  4, 35, 35)
  0 -0.2288E-07  0 -0.1989E-07  0 -0.1721E-07  0 -0.1498E-07  0 -0.1331E-07
   (  4, 35, 35)  (  4, 35, 35)  (  4, 35, 35)  (  4, 35, 35)  (  4, 35, 35)
  0 -0.1160E-07  0 -0.1096E-07  1 -0.1092E-07
   (  4, 35, 35)  (  4, 35, 35)  (  4, 35, 35)



 OUTPUT CONTROL FOR STRESS PERIOD   72   TIME STEP    1
    SAVE HEAD FOR ALL LAYERS
    SAVE DRAWDOWN FOR ALL LAYERS
    SAVE BUDGET
    PRINT BUDGET
 UBDSV1 SAVING "         STORAGE" ON UNIT   9 AT TIME STEP  1, STRESS PERIOD  72
 UBDSV2 SAVING "   CONSTANT HEAD" ON UNIT   9 AT TIME STEP  1, STRESS PERIOD  72
 UBDSV1 SAVING "FLOW RIGHT FACE " ON UNIT   9 AT TIME STEP  1, STRESS PERIOD  72
 UBDSV1 SAVING "FLOW FRONT FACE " ON UNIT   9 AT TIME STEP  1, STRESS PERIOD  72
 UBDSV1 SAVING "FLOW LOWER FACE " ON UNIT   9 AT TIME STEP  1, STRESS PERIOD  72
 UBDSV3 SAVING "        RECHARGE" ON UNIT   9 AT TIME STEP  1, STRESS PERIOD  72

 HEAD WILL BE SAVED ON UNIT   37 AT END OF TIME STEP    1, STRESS PERIOD   72

 DRAWDOWN WILL BE SAVED ON UNIT   38 AT END OF TIME STEP    1, STRESS PERIOD   72
1
  VOLUMETRIC BUDGET FOR ENTIRE MODEL AT END OF TIME STEP    1, STRESS PERIOD  72
  ------------------------------------------------------------------------------

     CUMULATIVE VOLUMES      L**3       RATES FOR THIS TIME STEP      L**3/T
     ------------------                 ------------------------

           IN:                                      IN:
           ---                                      ---
             STORAGE =       11101.4512               STORAGE =           0.0000
       CONSTANT HEAD =       19512.5234         CONSTANT HEAD =       6.6867E-03
            RECHARGE =         829.4495              RECHARGE =       1.0213E-04

            TOTAL IN =       31443.4238              TOTAL IN =       6.7889E-03

          OUT:                                     OUT:
          ----                                     ----
             STORAGE =        7414.0942               STORAGE =       6.7889E-03
       CONSTANT HEAD =       24030.1797         CONSTANT HEAD =           0.0000
            RECHARGE =           0.0000              RECHARGE =           0.0000

           TOTAL OUT =       31444.2734             TOTAL OUT =       6.7889E-03

            IN - OUT =          -0.8496              IN - OUT =       8.8476E-09

 PERCENT DISCREPANCY =          -0.00     PERCENT DISCREPANCY =           0.00






         TIME SUMMARY AT END OF TIME STEP    1 IN STRESS PERIOD   72
                    SECONDS     MINUTES      HOURS       DAYS        YEARS
                    -----------------------------------------------------------
   TIME STEP LENGTH  86400.      1440.0      24.000      1.0000     2.73785E-03
 STRESS PERIOD TIME  86400.      1440.0      24.000      1.0000     2.73785E-03
         TOTAL TIME 8.12160E+06 1.35360E+05  2256.0      94.000     0.25736    
1
1
                            STRESS PERIOD NO.   73, LENGTH =   86400.00    
                            -----------------------------------------------

                              NUMBER OF TIME STEPS =     1

                               MULTIPLIER FOR DELT =     1.000

                            INITIAL TIME STEP SIZE =   86400.00    

 REUSING RECH FROM LAST STRESS PERIOD

 CHD NO.   LAYER   ROW   COL    START HEAD        END HEAD         IFACE           
 ----------------------------------------------------------------------------------
      1      4      3      1       109.8           109.8           0.000    
      2      5      3      1       109.8           109.8           0.000    
      3      4      3      2       109.8           109.8           0.000    
      4      5      3      2       109.8           109.8           0.000    
      5      4      3      3       109.8           109.8           0.000    
      6      5      3      3       109.8           109.8           0.000    
      7      4      3      4       109.8           109.8           0.000    
      8      5      3      4       109.8           109.8           0.000    
      9      4      3      5       109.8           109.8           0.000    
     10      5      3      5       109.8           109.8           0.000    
     11      4      3      6       109.8           109.8           0.000    
     12      5      3      6       109.8           109.8           0.000    
     13      4      3      7       109.8           109.8           0.000    
     14      5      3      7       109.8           109.8           0.000    
     15      4      3      8       109.8           109.8           0.000    
     16      5      3      8       109.8           109.8           0.000    
     17      4      2      8       109.8           109.8           0.000    
     18      5      2      8       109.8           109.8           0.000    
     19      4      2      9       109.8           109.8           0.000    
     20      5      2      9       109.8           109.8           0.000    
     21      4      2     10       109.8           109.8           0.000    
     22      5      2     10       109.8           109.8           0.000    
     23      4      2     11       109.8           109.8           0.000    
     24      5      2     11       109.8           109.8           0.000    
     25      4      2     12       109.8           109.8           0.000    
     26      5      2     12       109.8           109.8           0.000    
     27      4      2     13       109.8           109.8           0.000    
     28      5      2     13       109.8           109.8           0.000    
     29      4      2     14       109.8           109.8           0.000    
     30      5      2     14       109.8           109.8           0.000    
     31      4      2     15       109.8           109.8           0.000    
     32      5      2     15       109.8           109.8           0.000    
     33      4      2     16       109.8           109.8           0.000    
     34      5      2     16       109.8           109.8           0.000    
     35      4      2     17       109.8           109.8           0.000    
     36      5      2     17       109.8           109.8           0.000    
     37      4      2     18       109.8           109.8           0.000    
     38      5      2     18       109.8           109.8           0.000    
     39      4      2     19       109.8           109.8           0.000    
     40      5      2     19       109.8           109.8           0.000    
     41      4      2     20       109.8           109.8           0.000    
     42      5      2     20       109.8           109.8           0.000    
     43      4      2     21       109.8           109.8           0.000    
     44      5      2     21       109.8           109.8           0.000    
     45      4      2     22       109.8           109.8           0.000    
     46      5      2     22       109.8           109.8           0.000    
     47      4      2     23       109.8           109.8           0.000    
     48      5      2     23       109.8           109.8           0.000    
     49      4      2     24       109.8           109.8           0.000    
     50      5      2     24       109.8           109.8           0.000    
     51      4      2     25       109.8           109.8           0.000    
     52      5      2     25       109.8           109.8           0.000    
     53      4      2     26       109.8           109.8           0.000    
     54      5      2     26       109.8           109.8           0.000    
     55      4      1     26       109.8           109.8           0.000    
     56      5      1     26       109.8           109.8           0.000    
     57      4      1     27       109.8           109.8           0.000    
     58      5      1     27       109.8           109.8           0.000    
     59      4      1     28       109.8           109.8           0.000    
     60      5      1     28       109.8           109.8           0.000    
     61      4      1     29       109.8           109.8           0.000    
     62      5      1     29       109.8           109.8           0.000    
     63      4      1     30       109.8           109.8           0.000    
     64      5      1     30       109.8           109.8           0.000    
     65      4      1     31       109.8           109.8           0.000    
     66      5      1     31       109.8           109.8           0.000    
     67      4      1     32       109.8           109.8           0.000    
     68      5      1     32       109.8           109.8           0.000    
     69      4      1     33       109.8           109.8           0.000    
     70      5      1     33       109.8           109.8           0.000    
     71      4      1     34       109.8           109.8           0.000    
     72      5      1     34       109.8           109.8           0.000    
     73      4      1     35       109.8           109.8           0.000    
     74      5      1     35       109.8           109.8           0.000    
     75      4     36     35       109.9           109.8           0.000    
     76      5     36     35       109.9           109.8           0.000    
     77      4     35     34       109.9           109.8           0.000    
     78      5     35     34       109.9           109.8           0.000    
     79      4     36     34       109.9           109.8           0.000    
     80      5     36     34       109.9           109.8           0.000    
     81      4     36     33       109.9           109.8           0.000    
     82      5     36     33       109.9           109.8           0.000    
     83      4     36     32       109.9           109.8           0.000    
     84      5     36     32       109.9           109.8           0.000    
     85      4     37     32       109.9           109.8           0.000    
     86      5     37     32       109.9           109.8           0.000    
     87      4     37     31       109.9           109.8           0.000    
     88      5     37     31       109.9           109.8           0.000    
     89      4     38     31       109.9           109.8           0.000    
     90      5     38     31       109.9           109.8           0.000    
     91      4     38     30       109.9           109.8           0.000    
     92      5     38     30       109.9           109.8           0.000    
     93      4     39     30       109.9           109.8           0.000    
     94      5     39     30       109.9           109.8           0.000    
     95      4     39     29       109.9           109.8           0.000    
     96      5     39     29       109.9           109.8           0.000    
     97      4     40     29       109.9           109.8           0.000    
     98      5     40     29       109.9           109.8           0.000    
     99      4     40     28       109.9           109.8           0.000    
    100      5     40     28       109.9           109.8           0.000    
    101      4     40     27       109.9           109.8           0.000    
    102      5     40     27       109.9           109.8           0.000    
    103      4     41     27       109.9           109.8           0.000    
    104      5     41     27       109.9           109.8           0.000    
    105      4     41     26       109.9           109.8           0.000    
    106      5     41     26       109.9           109.8           0.000    
    107      4     41     25       109.9           109.8           0.000    
    108      5     41     25       109.9           109.8           0.000    
    109      4     41     24       109.9           109.8           0.000    
    110      5     41     24       109.9           109.8           0.000    
    111      4     41     23       109.9           109.8           0.000    
    112      5     41     23       109.9           109.8           0.000    
    113      4     41     22       109.9           109.8           0.000    
    114      5     41     22       109.9           109.8           0.000    
    115      4     42     22       109.9           109.8           0.000    
    116      5     42     22       109.9           109.8           0.000    
    117      4     42     21       109.9           109.8           0.000    
    118      5     42     21       109.9           109.8           0.000    
    119      4     42     20       109.9           109.8           0.000    
    120      5     42     20       109.9           109.8           0.000    
    121      4     42     19       109.9           109.8           0.000    
    122      5     42     19       109.9           109.8           0.000    
    123      4     43     18       109.9           109.8           0.000    
    124      5     43     18       109.9           109.8           0.000    
    125      4     42     18       109.9           109.8           0.000    
    126      5     42     18       109.9           109.8           0.000    
    127      4     42     17       109.9           109.8           0.000    
    128      5     42     17       109.9           109.8           0.000    
    129      4     42     16       109.9           109.8           0.000    
    130      5     42     16       109.9           109.8           0.000    
    131      4     42     15       109.9           109.8           0.000    
    132      5     42     15       109.9           109.8           0.000    
    133      4     43     15       109.9           109.8           0.000    
    134      5     43     15       109.9           109.8           0.000    
    135      4     43     14       109.9           109.8           0.000    
    136      5     43     14       109.9           109.8           0.000    
    137      4     43     13       109.9           109.8           0.000    
    138      5     43     13       109.9           109.8           0.000    
    139      4     43     12       109.9           109.8           0.000    
    140      5     43     12       109.9           109.8           0.000    
    141      4     43     11       109.9           109.8           0.000    
    142      5     43     11       109.9           109.8           0.000    
    143      4     43     10       109.9           109.8           0.000    
    144      5     43     10       109.9           109.8           0.000    
    145      4     44     10       109.9           109.8           0.000    
    146      5     44     10       109.9           109.8           0.000    
    147      4     44      9       109.9           109.8           0.000    
    148      5     44      9       109.9           109.8           0.000    
    149      4     44      8       109.9           109.8           0.000    
    150      5     44      8       109.9           109.8           0.000    
    151      4     44      7       109.9           109.8           0.000    
    152      5     44      7       109.9           109.8           0.000    
    153      4     44      6       109.9           109.8           0.000    
    154      5     44      6       109.9           109.8           0.000    
    155      4     44      5       109.9           109.8           0.000    
    156      5     44      5       109.9           109.8           0.000    
    157      4     44      4       109.9           109.8           0.000    
    158      5     44      4       109.9           109.8           0.000    
    159      4     44      3       109.9           109.8           0.000    
    160      5     44      3       109.9           109.8           0.000    
    161      4     45      3       109.9           109.8           0.000    
    162      5     45      3       109.9           109.8           0.000    
    163      4     45      2       109.9           109.8           0.000    
    164      5     45      2       109.9           109.8           0.000    
    165      4     45      1       109.9           109.8           0.000    
    166      5     45      1       109.9           109.8           0.000    


    166 TIME-VARIANT SPECIFIED-HEAD CELLS

 SOLVING FOR HEAD 


     4 CALLS TO PCG ROUTINE FOR TIME STEP   1 IN STRESS PERIOD   73
    67 TOTAL ITERATIONS

 MAXIMUM HEAD CHANGE FOR EACH ITERATION (1 INDICATES THE FIRST INNER ITERATION):

    HEAD CHANGE    HEAD CHANGE    HEAD CHANGE    HEAD CHANGE    HEAD CHANGE 
   LAYER,ROW,COL  LAYER,ROW,COL  LAYER,ROW,COL  LAYER,ROW,COL  LAYER,ROW,COL
 ---------------------------------------------------------------------------
  1 -0.4031      0  0.2385      0 -0.1483      0  0.1150      0 -0.1775    
   (  5, 43,  5)  (  5, 35,  1)  (  5, 31,  2)  (  5, 28,  3)  (  5, 37,  1)
  0  0.8799E-01  0 -0.1007      0  0.1107      0  0.6597E-01  0  0.4805E-01
   (  5, 35,  2)  (  5, 40,  1)  (  5, 37,  1)  (  5, 37,  6)  (  5, 40,  1)
  0  0.3588E-01  0 -0.2891E-01  0  0.2069E-01  0 -0.1698E-01  0  0.1708E-01
   (  5, 33,  1)  (  5, 33,  9)  (  5, 31,  4)  (  5, 27, 10)  (  5, 37,  1)
  0 -0.1382E-01  0 -0.1561E-01  0  0.1120E-01  0 -0.9002E-02  0  0.6650E-02
   (  5, 35,  2)  (  5, 30,  9)  (  5, 28,  9)  (  5, 34,  9)  (  5, 38,  4)
  0 -0.4979E-02  0  0.4223E-02  0 -0.4026E-02  0 -0.4206E-02  0  0.3358E-02
   (  5, 37,  1)  (  5, 31,  3)  (  5, 32,  6)  (  5, 14,  1)  (  5, 13,  1)
  0 -0.2164E-02  0  0.1781E-02  0 -0.1062E-02  0  0.1004E-02  0 -0.7466E-03
   (  5, 39,  2)  (  5, 37,  1)  (  5, 34,  4)  (  5, 12,  1)  (  5, 12,  1)
  1  0.4442E-03  0 -0.3720E-03  0  0.3444E-03  0 -0.3202E-03  0 -0.2624E-03
   (  5, 27,  2)  (  5, 30,  2)  (  5, 39,  2)  (  5, 37,  1)  (  5, 34,  3)
  0  0.3806E-03  0 -0.3104E-03  0  0.1461E-03  0 -0.2196E-03  0  0.1775E-03
   (  5, 39,  2)  (  5, 39,  5)  (  5, 25,  6)  (  5, 40,  1)  (  5, 41,  2)
  0 -0.1087E-03  0  0.7025E-04  0 -0.9221E-04  0 -0.7628E-04  0  0.5471E-04
   (  5, 39,  2)  (  5, 28,  2)  (  5, 33,  2)  (  5, 34,  8)  (  5, 35,  7)
  0 -0.4061E-04  0  0.2947E-04  0  0.2015E-04  0 -0.2246E-04  0 -0.2026E-04
   (  5, 14,  1)  (  5, 28,  9)  (  5, 37,  4)  (  5, 30, 11)  (  5, 36,  9)
  0  0.1919E-04  0 -0.7501E-05  0  0.1090E-04  0  0.8055E-05  0 -0.7845E-05
   (  5, 37,  7)  (  5, 32,  2)  (  5, 30,  2)  (  5, 35,  1)  (  5, 38,  1)
  0  0.9745E-05  0 -0.4884E-05  0 -0.3843E-05  0 -0.1995E-05  0  0.2150E-05
   (  5, 40,  1)  (  5, 42,  2)  (  5, 13,  1)  (  5, 37,  2)  (  5, 36,  4)
  1 -0.1434E-05  0  0.1015E-05  0 -0.1170E-05  0  0.1103E-05  0  0.1165E-05
   (  5, 12,  1)  (  5, 34,  1)  (  5, 29,  3)  (  5, 27,  2)  (  5, 39,  1)
  0 -0.9120E-06  1  0.7140E-06
   (  5, 14,  1)  (  5, 14,  1)

 MAXIMUM RESIDUAL FOR EACH ITERATION (1 INDICATES THE FIRST INNER ITERATION):

    RESIDUAL       RESIDUAL       RESIDUAL       RESIDUAL       RESIDUAL    
   LAYER,ROW,COL  LAYER,ROW,COL  LAYER,ROW,COL  LAYER,ROW,COL  LAYER,ROW,COL
 ---------------------------------------------------------------------------
  1  0.2313E-02  0  0.1802E-02  0  0.1532E-02  0  0.1255E-02  0  0.1015E-02
   (  4, 44,  2)  (  4, 44,  2)  (  4, 44,  2)  (  4, 44,  2)  (  3, 40, 27)
  0  0.8881E-03  0  0.7546E-03  0  0.6063E-03  0  0.4907E-03  0  0.3890E-03
   (  3, 40, 27)  (  3, 40, 27)  (  3, 40, 27)  (  3, 40, 27)  (  4, 35, 35)
  0  0.3067E-03  0  0.2461E-03  0  0.2227E-03  0  0.1651E-03  0 -0.1317E-03
   (  4, 35, 35)  (  4, 35, 35)  (  4, 35, 35)  (  4, 35, 35)  (  4, 43,  4)
  0 -0.1177E-03  0 -0.9076E-04  0 -0.7233E-04  0 -0.6195E-04  0 -0.5430E-04
   (  3, 35, 35)  (  3, 35, 35)  (  4, 34, 35)  (  4, 34, 35)  (  4, 34, 35)
  0 -0.4938E-04  0 -0.4385E-04  0 -0.3988E-04  0 -0.3142E-04  0 -0.2530E-04
   (  4, 34, 35)  (  4, 34, 35)  (  4, 34, 35)  (  4, 34, 35)  (  4, 34, 35)
  0 -0.2150E-04  0 -0.1937E-04  0 -0.1783E-04  0 -0.1337E-04  0 -0.9423E-05
   (  4, 34, 35)  (  4, 34, 35)  (  4, 34, 35)  (  4, 34, 35)  (  4, 34, 35)
  1 -0.8958E-05  0 -0.8736E-05  0 -0.7303E-05  0 -0.6160E-05  0 -0.5437E-05
   (  4, 34, 35)  (  4, 34, 35)  (  4, 34, 35)  (  4, 34, 35)  (  4, 34, 35)
  0 -0.4757E-05  0 -0.3796E-05  0 -0.3254E-05  0 -0.2323E-05  0 -0.1739E-05
   (  4, 34, 35)  (  4, 34, 35)  (  4, 34, 35)  (  4, 34, 35)  (  4, 34, 35)
  0 -0.1366E-05  0 -0.1247E-05  0  0.9509E-06  0  0.7623E-06  0  0.6220E-06
   (  4, 34, 35)  (  4, 34, 35)  (  4, 35, 35)  (  4, 35, 35)  (  4, 35, 35)
  0  0.4753E-06  0  0.3909E-06  0  0.3602E-06  0  0.2867E-06  0  0.2166E-06
   (  4, 35, 35)  (  4, 35, 35)  (  4, 35, 35)  (  4, 35, 35)  (  4, 35, 35)
  0  0.1657E-06  0  0.1545E-06  0  0.1272E-06  0  0.1040E-06  0  0.7411E-07
   (  4, 35, 35)  (  4, 35, 35)  (  4, 35, 35)  (  4, 35, 35)  (  4, 35, 35)
  0  0.5271E-07  0  0.3936E-07  0  0.2578E-07  0  0.2265E-07  0  0.1814E-07
   (  4, 35, 35)  (  4, 35, 35)  (  4, 35, 35)  (  4, 35, 35)  (  4, 35, 35)
  1  0.1742E-07  0  0.1700E-07  0  0.1565E-07  0  0.1426E-07  0  0.1297E-07
   (  4, 35, 35)  (  4, 35, 35)  (  4, 35, 35)  (  4, 35, 35)  (  4, 35, 35)
  0  0.1054E-07  1  0.1022E-07
   (  4, 35, 35)  (  4, 35, 35)



 OUTPUT CONTROL FOR STRESS PERIOD   73   TIME STEP    1
    SAVE HEAD FOR ALL LAYERS
    SAVE DRAWDOWN FOR ALL LAYERS
    SAVE BUDGET
    PRINT BUDGET
 UBDSV1 SAVING "         STORAGE" ON UNIT   9 AT TIME STEP  1, STRESS PERIOD  73
 UBDSV2 SAVING "   CONSTANT HEAD" ON UNIT   9 AT TIME STEP  1, STRESS PERIOD  73
 UBDSV1 SAVING "FLOW RIGHT FACE " ON UNIT   9 AT TIME STEP  1, STRESS PERIOD  73
 UBDSV1 SAVING "FLOW FRONT FACE " ON UNIT   9 AT TIME STEP  1, STRESS PERIOD  73
 UBDSV1 SAVING "FLOW LOWER FACE " ON UNIT   9 AT TIME STEP  1, STRESS PERIOD  73
 UBDSV3 SAVING "        RECHARGE" ON UNIT   9 AT TIME STEP  1, STRESS PERIOD  73

 HEAD WILL BE SAVED ON UNIT   37 AT END OF TIME STEP    1, STRESS PERIOD   73

 DRAWDOWN WILL BE SAVED ON UNIT   38 AT END OF TIME STEP    1, STRESS PERIOD   73
1
  VOLUMETRIC BUDGET FOR ENTIRE MODEL AT END OF TIME STEP    1, STRESS PERIOD  73
  ------------------------------------------------------------------------------

     CUMULATIVE VOLUMES      L**3       RATES FOR THIS TIME STEP      L**3/T
     ------------------                 ------------------------

           IN:                                      IN:
           ---                                      ---
             STORAGE =       11176.2539               STORAGE =       8.6577E-04
       CONSTANT HEAD =       19568.6172         CONSTANT HEAD =       6.4923E-04
            RECHARGE =         838.2734              RECHARGE =       1.0213E-04

            TOTAL IN =       31583.1445              TOTAL IN =       1.6171E-03

          OUT:                                     OUT:
          ----                                     ----
             STORAGE =        7479.7178               STORAGE =       7.5953E-04
       CONSTANT HEAD =       24104.2910         CONSTANT HEAD =       8.5778E-04
            RECHARGE =           0.0000              RECHARGE =           0.0000

           TOTAL OUT =       31584.0078             TOTAL OUT =       1.6173E-03

            IN - OUT =          -0.8633              IN - OUT =      -1.8312E-07

 PERCENT DISCREPANCY =          -0.00     PERCENT DISCREPANCY =          -0.01






         TIME SUMMARY AT END OF TIME STEP    1 IN STRESS PERIOD   73
                    SECONDS     MINUTES      HOURS       DAYS        YEARS
                    -----------------------------------------------------------
   TIME STEP LENGTH  86400.      1440.0      24.000      1.0000     2.73785E-03
 STRESS PERIOD TIME  86400.      1440.0      24.000      1.0000     2.73785E-03
         TOTAL TIME 8.20800E+06 1.36800E+05  2280.0      95.000     0.26010    
1
1
                            STRESS PERIOD NO.   74, LENGTH =   345600.0    
                            -----------------------------------------------

                              NUMBER OF TIME STEPS =     4

                               MULTIPLIER FOR DELT =     1.000

                            INITIAL TIME STEP SIZE =   86400.00    

 REUSING RECH FROM LAST STRESS PERIOD

 CHD NO.   LAYER   ROW   COL    START HEAD        END HEAD         IFACE           
 ----------------------------------------------------------------------------------
      1      4      3      1       109.8           109.8           0.000    
      2      5      3      1       109.8           109.8           0.000    
      3      4      3      2       109.8           109.8           0.000    
      4      5      3      2       109.8           109.8           0.000    
      5      4      3      3       109.8           109.8           0.000    
      6      5      3      3       109.8           109.8           0.000    
      7      4      3      4       109.8           109.8           0.000    
      8      5      3      4       109.8           109.8           0.000    
      9      4      3      5       109.8           109.8           0.000    
     10      5      3      5       109.8           109.8           0.000    
     11      4      3      6       109.8           109.8           0.000    
     12      5      3      6       109.8           109.8           0.000    
     13      4      3      7       109.8           109.8           0.000    
     14      5      3      7       109.8           109.8           0.000    
     15      4      3      8       109.8           109.8           0.000    
     16      5      3      8       109.8           109.8           0.000    
     17      4      2      8       109.8           109.8           0.000    
     18      5      2      8       109.8           109.8           0.000    
     19      4      2      9       109.8           109.8           0.000    
     20      5      2      9       109.8           109.8           0.000    
     21      4      2     10       109.8           109.8           0.000    
     22      5      2     10       109.8           109.8           0.000    
     23      4      2     11       109.8           109.8           0.000    
     24      5      2     11       109.8           109.8           0.000    
     25      4      2     12       109.8           109.8           0.000    
     26      5      2     12       109.8           109.8           0.000    
     27      4      2     13       109.8           109.8           0.000    
     28      5      2     13       109.8           109.8           0.000    
     29      4      2     14       109.8           109.8           0.000    
     30      5      2     14       109.8           109.8           0.000    
     31      4      2     15       109.8           109.8           0.000    
     32      5      2     15       109.8           109.8           0.000    
     33      4      2     16       109.8           109.8           0.000    
     34      5      2     16       109.8           109.8           0.000    
     35      4      2     17       109.8           109.8           0.000    
     36      5      2     17       109.8           109.8           0.000    
     37      4      2     18       109.8           109.8           0.000    
     38      5      2     18       109.8           109.8           0.000    
     39      4      2     19       109.8           109.8           0.000    
     40      5      2     19       109.8           109.8           0.000    
     41      4      2     20       109.8           109.8           0.000    
     42      5      2     20       109.8           109.8           0.000    
     43      4      2     21       109.8           109.8           0.000    
     44      5      2     21       109.8           109.8           0.000    
     45      4      2     22       109.8           109.8           0.000    
     46      5      2     22       109.8           109.8           0.000    
     47      4      2     23       109.8           109.8           0.000    
     48      5      2     23       109.8           109.8           0.000    
     49      4      2     24       109.8           109.8           0.000    
     50      5      2     24       109.8           109.8           0.000    
     51      4      2     25       109.8           109.8           0.000    
     52      5      2     25       109.8           109.8           0.000    
     53      4      2     26       109.8           109.8           0.000    
     54      5      2     26       109.8           109.8           0.000    
     55      4      1     26       109.8           109.8           0.000    
     56      5      1     26       109.8           109.8           0.000    
     57      4      1     27       109.8           109.8           0.000    
     58      5      1     27       109.8           109.8           0.000    
     59      4      1     28       109.8           109.8           0.000    
     60      5      1     28       109.8           109.8           0.000    
     61      4      1     29       109.8           109.8           0.000    
     62      5      1     29       109.8           109.8           0.000    
     63      4      1     30       109.8           109.8           0.000    
     64      5      1     30       109.8           109.8           0.000    
     65      4      1     31       109.8           109.8           0.000    
     66      5      1     31       109.8           109.8           0.000    
     67      4      1     32       109.8           109.8           0.000    
     68      5      1     32       109.8           109.8           0.000    
     69      4      1     33       109.8           109.8           0.000    
     70      5      1     33       109.8           109.8           0.000    
     71      4      1     34       109.8           109.8           0.000    
     72      5      1     34       109.8           109.8           0.000    
     73      4      1     35       109.8           109.8           0.000    
     74      5      1     35       109.8           109.8           0.000    
     75      4     36     35       109.8           109.8           0.000    
     76      5     36     35       109.8           109.8           0.000    
     77      4     35     34       109.8           109.8           0.000    
     78      5     35     34       109.8           109.8           0.000    
     79      4     36     34       109.8           109.8           0.000    
     80      5     36     34       109.8           109.8           0.000    
     81      4     36     33       109.8           109.8           0.000    
     82      5     36     33       109.8           109.8           0.000    
     83      4     36     32       109.8           109.8           0.000    
     84      5     36     32       109.8           109.8           0.000    
     85      4     37     32       109.8           109.8           0.000    
     86      5     37     32       109.8           109.8           0.000    
     87      4     37     31       109.8           109.8           0.000    
     88      5     37     31       109.8           109.8           0.000    
     89      4     38     31       109.8           109.8           0.000    
     90      5     38     31       109.8           109.8           0.000    
     91      4     38     30       109.8           109.8           0.000    
     92      5     38     30       109.8           109.8           0.000    
     93      4     39     30       109.8           109.8           0.000    
     94      5     39     30       109.8           109.8           0.000    
     95      4     39     29       109.8           109.8           0.000    
     96      5     39     29       109.8           109.8           0.000    
     97      4     40     29       109.8           109.8           0.000    
     98      5     40     29       109.8           109.8           0.000    
     99      4     40     28       109.8           109.8           0.000    
    100      5     40     28       109.8           109.8           0.000    
    101      4     40     27       109.8           109.8           0.000    
    102      5     40     27       109.8           109.8           0.000    
    103      4     41     27       109.8           109.8           0.000    
    104      5     41     27       109.8           109.8           0.000    
    105      4     41     26       109.8           109.8           0.000    
    106      5     41     26       109.8           109.8           0.000    
    107      4     41     25       109.8           109.8           0.000    
    108      5     41     25       109.8           109.8           0.000    
    109      4     41     24       109.8           109.8           0.000    
    110      5     41     24       109.8           109.8           0.000    
    111      4     41     23       109.8           109.8           0.000    
    112      5     41     23       109.8           109.8           0.000    
    113      4     41     22       109.8           109.8           0.000    
    114      5     41     22       109.8           109.8           0.000    
    115      4     42     22       109.8           109.8           0.000    
    116      5     42     22       109.8           109.8           0.000    
    117      4     42     21       109.8           109.8           0.000    
    118      5     42     21       109.8           109.8           0.000    
    119      4     42     20       109.8           109.8           0.000    
    120      5     42     20       109.8           109.8           0.000    
    121      4     42     19       109.8           109.8           0.000    
    122      5     42     19       109.8           109.8           0.000    
    123      4     43     18       109.8           109.8           0.000    
    124      5     43     18       109.8           109.8           0.000    
    125      4     42     18       109.8           109.8           0.000    
    126      5     42     18       109.8           109.8           0.000    
    127      4     42     17       109.8           109.8           0.000    
    128      5     42     17       109.8           109.8           0.000    
    129      4     42     16       109.8           109.8           0.000    
    130      5     42     16       109.8           109.8           0.000    
    131      4     42     15       109.8           109.8           0.000    
    132      5     42     15       109.8           109.8           0.000    
    133      4     43     15       109.8           109.8           0.000    
    134      5     43     15       109.8           109.8           0.000    
    135      4     43     14       109.8           109.8           0.000    
    136      5     43     14       109.8           109.8           0.000    
    137      4     43     13       109.8           109.8           0.000    
    138      5     43     13       109.8           109.8           0.000    
    139      4     43     12       109.8           109.8           0.000    
    140      5     43     12       109.8           109.8           0.000    
    141      4     43     11       109.8           109.8           0.000    
    142      5     43     11       109.8           109.8           0.000    
    143      4     43     10       109.8           109.8           0.000    
    144      5     43     10       109.8           109.8           0.000    
    145      4     44     10       109.8           109.8           0.000    
    146      5     44     10       109.8           109.8           0.000    
    147      4     44      9       109.8           109.8           0.000    
    148      5     44      9       109.8           109.8           0.000    
    149      4     44      8       109.8           109.8           0.000    
    150      5     44      8       109.8           109.8           0.000    
    151      4     44      7       109.8           109.7           0.000    
    152      5     44      7       109.8           109.7           0.000    
    153      4     44      6       109.8           109.7           0.000    
    154      5     44      6       109.8           109.7           0.000    
    155      4     44      5       109.8           109.7           0.000    
    156      5     44      5       109.8           109.7           0.000    
    157      4     44      4       109.8           109.7           0.000    
    158      5     44      4       109.8           109.7           0.000    
    159      4     44      3       109.8           109.7           0.000    
    160      5     44      3       109.8           109.7           0.000    
    161      4     45      3       109.8           109.7           0.000    
    162      5     45      3       109.8           109.7           0.000    
    163      4     45      2       109.8           109.7           0.000    
    164      5     45      2       109.8           109.7           0.000    
    165      4     45      1       109.8           109.7           0.000    
    166      5     45      1       109.8           109.7           0.000    


    166 TIME-VARIANT SPECIFIED-HEAD CELLS

 SOLVING FOR HEAD 


     3 CALLS TO PCG ROUTINE FOR TIME STEP   1 IN STRESS PERIOD   74
    52 TOTAL ITERATIONS

 MAXIMUM HEAD CHANGE FOR EACH ITERATION (1 INDICATES THE FIRST INNER ITERATION):

    HEAD CHANGE    HEAD CHANGE    HEAD CHANGE    HEAD CHANGE    HEAD CHANGE 
   LAYER,ROW,COL  LAYER,ROW,COL  LAYER,ROW,COL  LAYER,ROW,COL  LAYER,ROW,COL
 ---------------------------------------------------------------------------
  1 -0.9410E-02  0  0.9707E-02  0 -0.8916E-02  0  0.7926E-02  0 -0.7001E-02
   (  5, 43,  6)  (  5, 33,  1)  (  5, 31,  2)  (  5, 27,  4)  (  5, 30,  6)
  0  0.5253E-02  0  0.7167E-02  0 -0.4683E-02  0  0.5152E-02  0  0.3034E-02
   (  5, 29,  3)  (  5, 36,  1)  (  5, 40,  4)  (  5, 38,  1)  (  5, 36,  4)
  0  0.3087E-02  0 -0.2392E-02  0 -0.1309E-02  0  0.1716E-02  0 -0.1122E-02
   (  5, 40,  1)  (  5, 32,  9)  (  5, 29,  1)  (  5, 31,  6)  (  5, 38,  4)
  0  0.7596E-03  0 -0.1068E-02  0  0.7172E-03  0  0.3970E-03  0  0.4925E-03
   (  5, 37,  4)  (  5, 33,  1)  (  5, 15,  1)  (  5, 31,  1)  (  5, 38,  4)
  0 -0.2638E-03  0  0.3162E-03  0  0.2726E-03  0 -0.1399E-03  0  0.1546E-03
   (  5, 37,  1)  (  5, 34,  1)  (  5, 37,  8)  (  5, 29,  1)  (  5, 40,  5)
  0  0.1287E-03  0 -0.8243E-04  0 -0.6501E-04  0  0.6306E-04  0  0.6647E-04
   (  5, 37,  1)  (  5, 39,  2)  (  5, 33,  1)  (  5, 36,  3)  (  5, 14,  1)
  1 -0.4905E-04  0 -0.2970E-04  0  0.3113E-04  0 -0.1516E-04  0  0.2296E-04
   (  5, 13,  1)  (  5, 35,  3)  (  5, 32,  4)  (  5, 27,  3)  (  5, 30,  6)
  0 -0.2398E-04  0  0.2082E-04  0 -0.9556E-05  0 -0.1255E-04  0  0.8870E-05
   (  5, 37,  1)  (  5, 40,  1)  (  5, 37,  3)  (  5, 36,  7)  (  5, 37,  6)
  0  0.1112E-04  0  0.7211E-05  0 -0.3513E-05  0  0.4651E-05  0  0.4172E-05
   (  5, 41,  2)  (  5, 34,  2)  (  5, 29,  1)  (  5, 31,  4)  (  5, 28,  7)
  0 -0.2939E-05  0 -0.1689E-05  0  0.2563E-05  0 -0.2186E-05  0  0.1318E-05
   (  5, 30,  9)  (  5, 34,  3)  (  5, 34,  8)  (  5, 36,  9)  (  5, 30,  8)
  0 -0.9608E-06  1  0.4812E-06
   (  5, 33, 10)  (  5, 37,  5)

 MAXIMUM RESIDUAL FOR EACH ITERATION (1 INDICATES THE FIRST INNER ITERATION):

    RESIDUAL       RESIDUAL       RESIDUAL       RESIDUAL       RESIDUAL    
   LAYER,ROW,COL  LAYER,ROW,COL  LAYER,ROW,COL  LAYER,ROW,COL  LAYER,ROW,COL
 ---------------------------------------------------------------------------
  1  0.9357E-04  0  0.8149E-04  0  0.6796E-04  0  0.5587E-04  0  0.4102E-04
   (  4, 44,  2)  (  4, 44,  2)  (  4, 44,  2)  (  4, 44,  2)  (  3, 41, 22)
  0  0.3427E-04  0  0.2978E-04  0  0.2383E-04  0  0.1864E-04  0  0.1480E-04
   (  3, 41, 22)  (  3, 41, 22)  (  3, 41, 22)  (  3, 41, 22)  (  4, 35, 35)
  0 -0.1238E-04  0 -0.1049E-04  0 -0.9668E-05  0 -0.8463E-05  0 -0.6407E-05
   (  4, 43,  4)  (  4, 43,  4)  (  4, 43,  4)  (  4, 43,  4)  (  4, 43,  4)
  0 -0.5822E-05  0 -0.5286E-05  0 -0.4317E-05  0 -0.3557E-05  0 -0.2670E-05
   (  3, 41, 23)  (  3, 41, 23)  (  4, 34, 35)  (  4, 44,  2)  (  4, 44,  2)
  0 -0.2281E-05  0 -0.1864E-05  0 -0.1493E-05  0 -0.1413E-05  0 -0.1039E-05
   (  4, 34, 35)  (  4, 34, 35)  (  4, 34, 35)  (  4, 34, 35)  (  4, 34, 35)
  0 -0.8135E-06  0 -0.7028E-06  0 -0.5980E-06  0 -0.5004E-06  0 -0.3586E-06
   (  4, 34, 35)  (  4, 34, 35)  (  4, 34, 35)  (  4, 34, 35)  (  4, 34, 35)
  1 -0.3357E-06  0 -0.3085E-06  0 -0.2817E-06  0 -0.2695E-06  0 -0.2266E-06
   (  4, 34, 35)  (  4, 34, 35)  (  4, 34, 35)  (  4, 34, 35)  (  4, 34, 35)
  0 -0.1962E-06  0 -0.1480E-06  0 -0.1314E-06  0 -0.9328E-07  0 -0.7167E-07
   (  4, 34, 35)  (  4, 34, 35)  (  4, 34, 35)  (  4, 34, 35)  (  4, 34, 35)
  0 -0.5505E-07  0  0.3882E-07  0  0.3714E-07  0  0.3246E-07  0  0.2686E-07
   (  4, 34, 35)  (  4, 35, 35)  (  4, 35, 35)  (  4, 35, 35)  (  4, 35, 35)
  0  0.2184E-07  0  0.1995E-07  0  0.1497E-07  0  0.1085E-07  0  0.7779E-08
   (  4, 35, 35)  (  4, 35, 35)  (  4, 35, 35)  (  4, 35, 35)  (  4, 35, 35)
  0  0.4924E-08  1  0.4824E-08
   (  4, 35, 35)  (  4, 35, 35)



 OUTPUT CONTROL FOR STRESS PERIOD   74   TIME STEP    1
    SAVE HEAD FOR ALL LAYERS
    SAVE DRAWDOWN FOR ALL LAYERS
    SAVE BUDGET
    PRINT BUDGET
 UBDSV1 SAVING "         STORAGE" ON UNIT   9 AT TIME STEP  1, STRESS PERIOD  74
 UBDSV2 SAVING "   CONSTANT HEAD" ON UNIT   9 AT TIME STEP  1, STRESS PERIOD  74
 UBDSV1 SAVING "FLOW RIGHT FACE " ON UNIT   9 AT TIME STEP  1, STRESS PERIOD  74
 UBDSV1 SAVING "FLOW FRONT FACE " ON UNIT   9 AT TIME STEP  1, STRESS PERIOD  74
 UBDSV1 SAVING "FLOW LOWER FACE " ON UNIT   9 AT TIME STEP  1, STRESS PERIOD  74
 UBDSV3 SAVING "        RECHARGE" ON UNIT   9 AT TIME STEP  1, STRESS PERIOD  74

 HEAD WILL BE SAVED ON UNIT   37 AT END OF TIME STEP    1, STRESS PERIOD   74

 DRAWDOWN WILL BE SAVED ON UNIT   38 AT END OF TIME STEP    1, STRESS PERIOD   74
1
  VOLUMETRIC BUDGET FOR ENTIRE MODEL AT END OF TIME STEP    1, STRESS PERIOD  74
  ------------------------------------------------------------------------------

     CUMULATIVE VOLUMES      L**3       RATES FOR THIS TIME STEP      L**3/T
     ------------------                 ------------------------

           IN:                                      IN:
           ---                                      ---
             STORAGE =       11186.7705               STORAGE =       1.2172E-04
       CONSTANT HEAD =       19607.5332         CONSTANT HEAD =       4.5043E-04
            RECHARGE =         847.0974              RECHARGE =       1.0213E-04

            TOTAL IN =       31641.4023              TOTAL IN =       6.7427E-04

          OUT:                                     OUT:
          ----                                     ----
             STORAGE =        7494.7070               STORAGE =       1.7349E-04
       CONSTANT HEAD =       24147.5645         CONSTANT HEAD =       5.0085E-04
            RECHARGE =           0.0000              RECHARGE =           0.0000

           TOTAL OUT =       31642.2715             TOTAL OUT =       6.7434E-04

            IN - OUT =          -0.8691              IN - OUT =      -6.3446E-08

 PERCENT DISCREPANCY =          -0.00     PERCENT DISCREPANCY =          -0.01






         TIME SUMMARY AT END OF TIME STEP    1 IN STRESS PERIOD   74
                    SECONDS     MINUTES      HOURS       DAYS        YEARS
                    -----------------------------------------------------------
   TIME STEP LENGTH  86400.      1440.0      24.000      1.0000     2.73785E-03
 STRESS PERIOD TIME  86400.      1440.0      24.000      1.0000     2.73785E-03
         TOTAL TIME 8.29440E+06 1.38240E+05  2304.0      96.000     0.26283    
1

 SOLVING FOR HEAD 
     3 CALLS TO PCG ROUTINE FOR TIME STEP   2 IN STRESS PERIOD   74
    51 TOTAL ITERATIONS

 MAXIMUM HEAD CHANGE FOR EACH ITERATION (1 INDICATES THE FIRST INNER ITERATION):

    HEAD CHANGE    HEAD CHANGE    HEAD CHANGE    HEAD CHANGE    HEAD CHANGE 
   LAYER,ROW,COL  LAYER,ROW,COL  LAYER,ROW,COL  LAYER,ROW,COL  LAYER,ROW,COL
 ---------------------------------------------------------------------------
  1 -0.1613E-01  0  0.9951E-02  0 -0.6232E-02  0  0.5155E-02  0 -0.7389E-02
   (  5, 43,  5)  (  5, 35,  1)  (  5, 31,  2)  (  5, 28,  4)  (  5, 37,  1)
  0  0.4137E-02  0 -0.3322E-02  0  0.4107E-02  0  0.2232E-02  0  0.2642E-02
   (  5, 35,  2)  (  5, 40,  1)  (  5, 37,  1)  (  5, 38,  6)  (  5, 33,  9)
  0 -0.1427E-02  0 -0.1162E-02  0  0.1267E-02  0  0.8136E-03  0 -0.7187E-03
   (  5, 31,  9)  (  5, 33,  3)  (  5, 30,  4)  (  5, 30,  8)  (  5, 37,  8)
  0  0.7013E-03  0 -0.4089E-03  0  0.4611E-03  0  0.3121E-03  0  0.2973E-03
   (  5, 36,  4)  (  5, 34,  1)  (  5, 16,  1)  (  5, 32,  1)  (  5, 36,  7)
  0 -0.1366E-03  0  0.1987E-03  0 -0.1535E-03  0  0.1353E-03  0  0.1119E-03
   (  5, 34,  4)  (  5, 31,  3)  (  5, 38,  2)  (  5, 35,  1)  (  5, 40,  5)
  0  0.6660E-04  0  0.6608E-04  0 -0.6337E-04  0 -0.3725E-04  0 -0.2645E-04
   (  5, 38,  9)  (  5, 37,  1)  (  5, 40,  2)  (  5, 35,  1)  (  5, 28,  2)
  1  0.1892E-04  0 -0.1873E-04  0  0.1404E-04  0  0.2337E-04  0 -0.1953E-04
   (  5, 33,  1)  (  5, 13,  1)  (  5, 26,  2)  (  5, 39,  1)  (  5, 37,  1)
  0  0.1188E-04  0  0.9400E-05  0 -0.7859E-05  0  0.8725E-05  0 -0.6211E-05
   (  5, 39,  2)  (  5, 42,  1)  (  5, 38,  3)  (  5, 37,  1)  (  5, 13,  1)
  0  0.3430E-05  0  0.5085E-05  0 -0.5224E-05  0  0.2845E-05  0 -0.2198E-05
   (  5, 30,  2)  (  5, 41,  2)  (  5, 39,  1)  (  5, 38,  8)  (  5, 35,  3)
  0  0.3033E-05  0 -0.2322E-05  0  0.1474E-05  0 -0.1375E-05  0 -0.6517E-06
   (  5, 32,  1)  (  5, 31,  9)  (  5, 34,  9)  (  5, 36,  9)  (  5, 29,  2)
  1  0.5490E-06
   (  5, 32,  5)

 MAXIMUM RESIDUAL FOR EACH ITERATION (1 INDICATES THE FIRST INNER ITERATION):

    RESIDUAL       RESIDUAL       RESIDUAL       RESIDUAL       RESIDUAL    
   LAYER,ROW,COL  LAYER,ROW,COL  LAYER,ROW,COL  LAYER,ROW,COL  LAYER,ROW,COL
 ---------------------------------------------------------------------------
  1  0.6591E-04  0  0.4963E-04  0  0.4313E-04  0  0.3804E-04  0  0.3004E-04
   (  4, 44,  2)  (  4, 44,  2)  (  4, 35, 35)  (  4, 35, 35)  (  3, 40, 27)
  0  0.2579E-04  0  0.2165E-04  0 -0.1793E-04  0 -0.1468E-04  0 -0.1277E-04
   (  3, 40, 27)  (  3, 40, 27)  (  4, 43,  5)  (  4, 43,  4)  (  4, 43,  4)
  0 -0.1048E-04  0 -0.9280E-05  0 -0.7918E-05  0 -0.6467E-05  0 -0.5622E-05
   (  4, 43,  4)  (  4, 43,  4)  (  4, 43,  4)  (  4, 44,  2)  (  4, 44,  2)
  0 -0.4901E-05  0 -0.4341E-05  0 -0.3530E-05  0 -0.2806E-05  0 -0.2051E-05
   (  4, 44,  2)  (  4, 44,  2)  (  4, 44,  2)  (  4, 44,  2)  (  4, 44,  2)
  0 -0.1856E-05  0 -0.1390E-05  0 -0.1150E-05  0 -0.1011E-05  0 -0.7851E-06
   (  4, 44,  2)  (  4, 44,  2)  (  4, 34, 35)  (  4, 34, 35)  (  4, 34, 35)
  0 -0.6086E-06  0 -0.5378E-06  0 -0.4096E-06  0 -0.3212E-06  0 -0.2893E-06
   (  4, 34, 35)  (  4, 34, 35)  (  4, 34, 35)  (  4, 34, 35)  (  4, 34, 35)
  1 -0.2862E-06  0 -0.2722E-06  0 -0.2633E-06  0 -0.2198E-06  0 -0.1853E-06
   (  4, 34, 35)  (  4, 34, 35)  (  4, 34, 35)  (  4, 34, 35)  (  4, 34, 35)
  0 -0.1557E-06  0 -0.1133E-06  0 -0.9990E-07  0 -0.6862E-07  0 -0.4825E-07
   (  4, 34, 35)  (  4, 34, 35)  (  4, 34, 35)  (  4, 34, 35)  (  4, 34, 35)
  0 -0.4465E-07  0 -0.3322E-07  0  0.2402E-07  0  0.1965E-07  0  0.1823E-07
   (  4, 34, 35)  (  4, 34, 35)  (  4, 35, 35)  (  4, 35, 35)  (  4, 35, 35)
  0  0.1424E-07  0  0.1075E-07  0  0.7962E-08  0  0.5983E-08  0  0.5522E-08
   (  4, 35, 35)  (  4, 35, 35)  (  4, 35, 35)  (  4, 35, 35)  (  4, 35, 35)
  1  0.5497E-08
   (  4, 35, 35)



 OUTPUT CONTROL FOR STRESS PERIOD   74   TIME STEP    2
    SAVE HEAD FOR ALL LAYERS
    SAVE DRAWDOWN FOR ALL LAYERS
    SAVE BUDGET
    PRINT BUDGET
 UBDSV1 SAVING "         STORAGE" ON UNIT   9 AT TIME STEP  2, STRESS PERIOD  74
 UBDSV2 SAVING "   CONSTANT HEAD" ON UNIT   9 AT TIME STEP  2, STRESS PERIOD  74
 UBDSV1 SAVING "FLOW RIGHT FACE " ON UNIT   9 AT TIME STEP  2, STRESS PERIOD  74
 UBDSV1 SAVING "FLOW FRONT FACE " ON UNIT   9 AT TIME STEP  2, STRESS PERIOD  74
 UBDSV1 SAVING "FLOW LOWER FACE " ON UNIT   9 AT TIME STEP  2, STRESS PERIOD  74
 UBDSV3 SAVING "        RECHARGE" ON UNIT   9 AT TIME STEP  2, STRESS PERIOD  74

 HEAD WILL BE SAVED ON UNIT   37 AT END OF TIME STEP    2, STRESS PERIOD   74

 DRAWDOWN WILL BE SAVED ON UNIT   38 AT END OF TIME STEP    2, STRESS PERIOD   74
1
  VOLUMETRIC BUDGET FOR ENTIRE MODEL AT END OF TIME STEP    2, STRESS PERIOD  74
  ------------------------------------------------------------------------------

     CUMULATIVE VOLUMES      L**3       RATES FOR THIS TIME STEP      L**3/T
     ------------------                 ------------------------

           IN:                                      IN:
           ---                                      ---
             STORAGE =       11191.6758               STORAGE =       5.6770E-05
       CONSTANT HEAD =       19648.0742         CONSTANT HEAD =       4.6923E-04
            RECHARGE =         855.9213              RECHARGE =       1.0213E-04

            TOTAL IN =       31695.6719              TOTAL IN =       6.2813E-04

          OUT:                                     OUT:
          ----                                     ----
             STORAGE =        7501.0049               STORAGE =       7.2889E-05
       CONSTANT HEAD =       24195.5410         CONSTANT HEAD =       5.5528E-04
            RECHARGE =           0.0000              RECHARGE =           0.0000

           TOTAL OUT =       31696.5469             TOTAL OUT =       6.2817E-04

            IN - OUT =          -0.8750              IN - OUT =      -3.8708E-08

 PERCENT DISCREPANCY =          -0.00     PERCENT DISCREPANCY =          -0.01






         TIME SUMMARY AT END OF TIME STEP    2 IN STRESS PERIOD   74
                    SECONDS     MINUTES      HOURS       DAYS        YEARS
                    -----------------------------------------------------------
   TIME STEP LENGTH  86400.      1440.0      24.000      1.0000     2.73785E-03
 STRESS PERIOD TIME 1.72800E+05  2880.0      48.000      2.0000     5.47570E-03
         TOTAL TIME 8.38080E+06 1.39680E+05  2328.0      97.000     0.26557    
1

 SOLVING FOR HEAD 
     3 CALLS TO PCG ROUTINE FOR TIME STEP   3 IN STRESS PERIOD   74
    51 TOTAL ITERATIONS

 MAXIMUM HEAD CHANGE FOR EACH ITERATION (1 INDICATES THE FIRST INNER ITERATION):

    HEAD CHANGE    HEAD CHANGE    HEAD CHANGE    HEAD CHANGE    HEAD CHANGE 
   LAYER,ROW,COL  LAYER,ROW,COL  LAYER,ROW,COL  LAYER,ROW,COL  LAYER,ROW,COL
 ---------------------------------------------------------------------------
  1 -0.1755E-01  0  0.1006E-01  0 -0.5569E-02  0  0.4610E-02  0 -0.6678E-02
   (  5, 43,  5)  (  5, 35,  1)  (  5, 30,  2)  (  5, 41,  2)  (  5, 37,  1)
  0  0.3458E-02  0 -0.4019E-02  0  0.4833E-02  0  0.2788E-02  0  0.2299E-02
   (  5, 35,  2)  (  5, 40,  1)  (  5, 37,  1)  (  5, 37,  6)  (  5, 40,  2)
  0  0.1715E-02  0 -0.1512E-02  0  0.1007E-02  0  0.1168E-02  0 -0.8515E-03
   (  5, 36, 10)  (  5, 33,  9)  (  5, 29,  3)  (  5, 30,  8)  (  5, 36,  8)
  0 -0.4977E-03  0  0.4689E-03  0  0.4425E-03  0  0.3062E-03  0  0.2839E-03
   (  5, 34,  1)  (  5, 35,  4)  (  5, 15,  1)  (  5, 31,  1)  (  5, 36,  7)
  0  0.2028E-03  0 -0.1441E-03  0  0.1904E-03  0 -0.1348E-03  0  0.1042E-03
   (  5, 38,  3)  (  5, 35,  4)  (  5, 32,  4)  (  5, 13,  1)  (  5, 40,  5)
  0 -0.6733E-04  0  0.8082E-04  0 -0.3494E-04  0  0.4590E-04  0 -0.3173E-04
   (  5, 38,  4)  (  5, 37,  1)  (  5, 33,  3)  (  5, 35,  3)  (  5, 36,  1)
  1  0.1846E-04  0 -0.1761E-04  0  0.2246E-04  0  0.1190E-04  0 -0.1482E-04
   (  5, 28,  2)  (  5, 31,  2)  (  5, 39,  1)  (  5, 33,  4)  (  5, 37,  1)
  0  0.1259E-04  0 -0.1215E-04  0 -0.7272E-05  0  0.1009E-04  0 -0.7588E-05
   (  5, 39,  2)  (  5, 40,  5)  (  5, 35,  1)  (  5, 37,  1)  (  5, 13,  1)
  0  0.3634E-05  0  0.4206E-05  0 -0.4366E-05  0 -0.2642E-05  0  0.2569E-05
   (  5, 29,  2)  (  5, 41,  2)  (  5, 39,  2)  (  5, 34,  3)  (  5, 29,  9)
  0 -0.2276E-05  0 -0.1057E-05  0  0.1222E-05  0 -0.1289E-05  0 -0.6923E-06
   (  5, 31,  9)  (  5, 36,  1)  (  5, 37,  4)  (  5, 37,  9)  (  5, 29,  1)
  1  0.5302E-06
   (  5, 30,  3)

 MAXIMUM RESIDUAL FOR EACH ITERATION (1 INDICATES THE FIRST INNER ITERATION):

    RESIDUAL       RESIDUAL       RESIDUAL       RESIDUAL       RESIDUAL    
   LAYER,ROW,COL  LAYER,ROW,COL  LAYER,ROW,COL  LAYER,ROW,COL  LAYER,ROW,COL
 ---------------------------------------------------------------------------
  1  0.6016E-04  0  0.4466E-04  0  0.4091E-04  0  0.3647E-04  0  0.2947E-04
   (  4, 44,  2)  (  4, 35, 35)  (  4, 35, 35)  (  4, 35, 35)  (  4, 35, 35)
  0  0.2517E-04  0  0.2069E-04  0 -0.1778E-04  0 -0.1461E-04  0 -0.1264E-04
   (  3, 40, 27)  (  3, 40, 27)  (  4, 43,  5)  (  4, 43,  4)  (  4, 43,  4)
  0 -0.1013E-04  0 -0.8635E-05  0 -0.7791E-05  0 -0.6463E-05  0 -0.5535E-05
   (  4, 43,  4)  (  4, 43,  4)  (  4, 43,  4)  (  4, 44,  2)  (  4, 44,  2)
  0 -0.5160E-05  0 -0.4295E-05  0 -0.3357E-05  0 -0.2654E-05  0 -0.1984E-05
   (  4, 44,  2)  (  4, 44,  2)  (  4, 44,  2)  (  4, 44,  2)  (  4, 44,  2)
  0 -0.1736E-05  0 -0.1441E-05  0 -0.1245E-05  0 -0.9799E-06  0 -0.7582E-06
   (  4, 44,  2)  (  4, 44,  2)  (  4, 34, 35)  (  4, 34, 35)  (  4, 34, 35)
  0 -0.6126E-06  0 -0.5281E-06  0 -0.4873E-06  0 -0.3686E-06  0 -0.2665E-06
   (  4, 34, 35)  (  4, 34, 35)  (  4, 34, 35)  (  4, 34, 35)  (  4, 34, 35)
  1 -0.2613E-06  0 -0.2505E-06  0 -0.2113E-06  0 -0.1911E-06  0 -0.1683E-06
   (  4, 34, 35)  (  4, 34, 35)  (  4, 34, 35)  (  4, 34, 35)  (  4, 34, 35)
  0 -0.1458E-06  0 -0.1054E-06  0 -0.8992E-07  0 -0.6538E-07  0 -0.4377E-07
   (  4, 34, 35)  (  4, 34, 35)  (  4, 34, 35)  (  4, 34, 35)  (  4, 34, 35)
  0 -0.3918E-07  0 -0.2985E-07  0  0.2228E-07  0  0.1727E-07  0  0.1321E-07
   (  4, 34, 35)  (  4, 34, 35)  (  4, 35, 35)  (  4, 35, 35)  (  4, 35, 35)
  0  0.9840E-08  0 -0.8770E-08  0 -0.7083E-08  0 -0.5500E-08  0 -0.4911E-08
   (  4, 35, 35)  (  3,  3,  1)  (  3,  3,  1)  (  3,  3,  1)  (  3,  3,  1)
  1 -0.4895E-08
   (  3,  3,  1)



 OUTPUT CONTROL FOR STRESS PERIOD   74   TIME STEP    3
    SAVE HEAD FOR ALL LAYERS
    SAVE DRAWDOWN FOR ALL LAYERS
    SAVE BUDGET
    PRINT BUDGET
 UBDSV1 SAVING "         STORAGE" ON UNIT   9 AT TIME STEP  3, STRESS PERIOD  74
 UBDSV2 SAVING "   CONSTANT HEAD" ON UNIT   9 AT TIME STEP  3, STRESS PERIOD  74
 UBDSV1 SAVING "FLOW RIGHT FACE " ON UNIT   9 AT TIME STEP  3, STRESS PERIOD  74
 UBDSV1 SAVING "FLOW FRONT FACE " ON UNIT   9 AT TIME STEP  3, STRESS PERIOD  74
 UBDSV1 SAVING "FLOW LOWER FACE " ON UNIT   9 AT TIME STEP  3, STRESS PERIOD  74
 UBDSV3 SAVING "        RECHARGE" ON UNIT   9 AT TIME STEP  3, STRESS PERIOD  74

 HEAD WILL BE SAVED ON UNIT   37 AT END OF TIME STEP    3, STRESS PERIOD   74

 DRAWDOWN WILL BE SAVED ON UNIT   38 AT END OF TIME STEP    3, STRESS PERIOD   74
1
  VOLUMETRIC BUDGET FOR ENTIRE MODEL AT END OF TIME STEP    3, STRESS PERIOD  74
  ------------------------------------------------------------------------------

     CUMULATIVE VOLUMES      L**3       RATES FOR THIS TIME STEP      L**3/T
     ------------------                 ------------------------

           IN:                                      IN:
           ---                                      ---
             STORAGE =       11196.3887               STORAGE =       5.4551E-05
       CONSTANT HEAD =       19694.4551         CONSTANT HEAD =       5.3681E-04
            RECHARGE =         864.7452              RECHARGE =       1.0213E-04

            TOTAL IN =       31755.5898              TOTAL IN =       6.9349E-04

          OUT:                                     OUT:
          ----                                     ----
             STORAGE =        7505.5474               STORAGE =       5.2577E-05
       CONSTANT HEAD =       24250.9219         CONSTANT HEAD =       6.4097E-04
            RECHARGE =           0.0000              RECHARGE =           0.0000

           TOTAL OUT =       31756.4688             TOTAL OUT =       6.9355E-04

            IN - OUT =          -0.8789              IN - OUT =      -5.7742E-08

 PERCENT DISCREPANCY =          -0.00     PERCENT DISCREPANCY =          -0.01






         TIME SUMMARY AT END OF TIME STEP    3 IN STRESS PERIOD   74
                    SECONDS     MINUTES      HOURS       DAYS        YEARS
                    -----------------------------------------------------------
   TIME STEP LENGTH  86400.      1440.0      24.000      1.0000     2.73785E-03
 STRESS PERIOD TIME 2.59200E+05  4320.0      72.000      3.0000     8.21355E-03
         TOTAL TIME 8.46720E+06 1.41120E+05  2352.0      98.000     0.26831    
1

 SOLVING FOR HEAD 
     3 CALLS TO PCG ROUTINE FOR TIME STEP   4 IN STRESS PERIOD   74
    51 TOTAL ITERATIONS

 MAXIMUM HEAD CHANGE FOR EACH ITERATION (1 INDICATES THE FIRST INNER ITERATION):

    HEAD CHANGE    HEAD CHANGE    HEAD CHANGE    HEAD CHANGE    HEAD CHANGE 
   LAYER,ROW,COL  LAYER,ROW,COL  LAYER,ROW,COL  LAYER,ROW,COL  LAYER,ROW,COL
 ---------------------------------------------------------------------------
  1 -0.1775E-01  0  0.1004E-01  0 -0.5483E-02  0  0.4712E-02  0 -0.6484E-02
   (  5, 43,  5)  (  5, 35,  1)  (  5, 30,  2)  (  5, 41,  2)  (  5, 37,  1)
  0  0.3336E-02  0 -0.4100E-02  0  0.4828E-02  0  0.2765E-02  0  0.2252E-02
   (  5, 35,  2)  (  5, 40,  1)  (  5, 37,  1)  (  5, 37,  6)  (  5, 40,  1)
  0  0.1759E-02  0 -0.1294E-02  0 -0.7676E-03  0  0.1202E-02  0 -0.9014E-03
   (  5, 36, 10)  (  5, 33, 10)  (  5, 31,  2)  (  5, 30,  8)  (  5, 36,  8)
  0  0.4271E-03  0  0.5470E-03  0  0.4331E-03  0  0.3036E-03  0  0.2753E-03
   (  5, 37,  1)  (  5, 34,  9)  (  5, 15,  1)  (  5, 30, 10)  (  5, 36,  7)
  0  0.2332E-03  0 -0.1166E-03  0  0.1606E-03  0 -0.1191E-03  0  0.1108E-03
   (  5, 32,  4)  (  5, 29,  1)  (  5, 35,  1)  (  5, 38,  2)  (  5, 13,  1)
  0  0.7981E-04  0  0.5444E-04  0 -0.4216E-04  0  0.4352E-04  0 -0.3249E-04
   (  5, 37,  1)  (  5, 34,  3)  (  5, 39,  4)  (  5, 38,  1)  (  5, 36,  1)
  1 -0.1958E-04  0  0.1829E-04  0 -0.1677E-04  0  0.1676E-04  0 -0.1369E-04
   (  5, 31,  2)  (  5, 28,  2)  (  5, 37,  1)  (  5, 39,  4)  (  5, 35,  3)
  0  0.9462E-05  0  0.1095E-04  0 -0.8188E-05  0  0.8186E-05  0 -0.7630E-05
   (  5, 33,  3)  (  5, 40,  1)  (  5, 34,  1)  (  5, 37,  1)  (  5, 13,  1)
  0 -0.2571E-05  0  0.4468E-05  0 -0.4209E-05  0 -0.2637E-05  0  0.2428E-05
   (  5, 32,  3)  (  5, 41,  2)  (  5, 39,  2)  (  5, 34,  3)  (  5, 29,  9)
  0 -0.1790E-05  0  0.1212E-05  0  0.1138E-05  0 -0.1250E-05  0 -0.7183E-06
   (  5, 31,  9)  (  5, 37,  4)  (  5, 34,  9)  (  5, 37,  9)  (  5, 31,  1)
  1  0.4809E-06
   (  5, 29,  2)

 MAXIMUM RESIDUAL FOR EACH ITERATION (1 INDICATES THE FIRST INNER ITERATION):

    RESIDUAL       RESIDUAL       RESIDUAL       RESIDUAL       RESIDUAL    
   LAYER,ROW,COL  LAYER,ROW,COL  LAYER,ROW,COL  LAYER,ROW,COL  LAYER,ROW,COL
 ---------------------------------------------------------------------------
  1  0.5937E-04  0  0.4447E-04  0  0.4083E-04  0  0.3648E-04  0  0.2967E-04
   (  4, 44,  2)  (  4, 35, 35)  (  4, 35, 35)  (  4, 35, 35)  (  4, 35, 35)
  0  0.2512E-04  0  0.2060E-04  0 -0.1773E-04  0 -0.1463E-04  0 -0.1255E-04
   (  3, 40, 27)  (  3, 40, 27)  (  4, 43,  5)  (  4, 43,  4)  (  4, 43,  4)
  0 -0.1005E-04  0 -0.8318E-05  0 -0.7706E-05  0 -0.6398E-05  0 -0.5474E-05
   (  4, 43,  4)  (  4, 43,  4)  (  4, 43,  4)  (  4, 44,  2)  (  4, 44,  2)
  0 -0.5156E-05  0 -0.4261E-05  0 -0.3334E-05  0 -0.2631E-05  0 -0.1935E-05
   (  4, 44,  2)  (  4, 44,  2)  (  4, 44,  2)  (  4, 44,  2)  (  4, 44,  2)
  0 -0.1428E-05  0 -0.1297E-05  0 -0.1101E-05  0 -0.9738E-06  0 -0.7515E-06
   (  4, 44,  2)  (  4, 34, 35)  (  4, 34, 35)  (  4, 34, 35)  (  4, 34, 35)
  0 -0.5916E-06  0 -0.5310E-06  0 -0.4828E-06  0 -0.3612E-06  0 -0.2595E-06
   (  4, 34, 35)  (  4, 34, 35)  (  4, 34, 35)  (  4, 34, 35)  (  4, 34, 35)
  1 -0.2524E-06  0 -0.2448E-06  0 -0.2069E-06  0 -0.1853E-06  0 -0.1640E-06
   (  4, 34, 35)  (  4, 34, 35)  (  4, 34, 35)  (  4, 34, 35)  (  4, 34, 35)
  0 -0.1430E-06  0 -0.1023E-06  0 -0.7929E-07  0 -0.6311E-07  0 -0.4158E-07
   (  4, 34, 35)  (  4, 34, 35)  (  4, 34, 35)  (  4, 34, 35)  (  4, 34, 35)
  0 -0.3758E-07  0 -0.2756E-07  0  0.2157E-07  0  0.1674E-07  0  0.1260E-07
   (  4, 34, 35)  (  4, 34, 35)  (  4, 35, 35)  (  4, 35, 35)  (  4, 35, 35)
  0 -0.9397E-08  0 -0.8482E-08  0 -0.6870E-08  0 -0.5310E-08  0 -0.4392E-08
   (  3,  3,  1)  (  3,  3,  1)  (  3,  3,  1)  (  3,  3,  1)  (  3,  3,  1)
  1 -0.4377E-08
   (  3,  3,  1)



 OUTPUT CONTROL FOR STRESS PERIOD   74   TIME STEP    4
    SAVE HEAD FOR ALL LAYERS
    SAVE DRAWDOWN FOR ALL LAYERS
    SAVE BUDGET
    PRINT BUDGET
 UBDSV1 SAVING "         STORAGE" ON UNIT   9 AT TIME STEP  4, STRESS PERIOD  74
 UBDSV2 SAVING "   CONSTANT HEAD" ON UNIT   9 AT TIME STEP  4, STRESS PERIOD  74
 UBDSV1 SAVING "FLOW RIGHT FACE " ON UNIT   9 AT TIME STEP  4, STRESS PERIOD  74
 UBDSV1 SAVING "FLOW FRONT FACE " ON UNIT   9 AT TIME STEP  4, STRESS PERIOD  74
 UBDSV1 SAVING "FLOW LOWER FACE " ON UNIT   9 AT TIME STEP  4, STRESS PERIOD  74
 UBDSV3 SAVING "        RECHARGE" ON UNIT   9 AT TIME STEP  4, STRESS PERIOD  74

 HEAD WILL BE SAVED ON UNIT   37 AT END OF TIME STEP    4, STRESS PERIOD   74

 DRAWDOWN WILL BE SAVED ON UNIT   38 AT END OF TIME STEP    4, STRESS PERIOD   74
1
  VOLUMETRIC BUDGET FOR ENTIRE MODEL AT END OF TIME STEP    4, STRESS PERIOD  74
  ------------------------------------------------------------------------------

     CUMULATIVE VOLUMES      L**3       RATES FOR THIS TIME STEP      L**3/T
     ------------------                 ------------------------

           IN:                                      IN:
           ---                                      ---
             STORAGE =       11201.2744               STORAGE =       5.6545E-05
       CONSTANT HEAD =       19748.0117         CONSTANT HEAD =       6.1988E-04
            RECHARGE =         873.5691              RECHARGE =       1.0213E-04

            TOTAL IN =       31822.8535              TOTAL IN =       7.7855E-04

          OUT:                                     OUT:
          ----                                     ----
             STORAGE =        7509.6973               STORAGE =       4.8032E-05
       CONSTANT HEAD =       24314.0430         CONSTANT HEAD =       7.3057E-04
            RECHARGE =           0.0000              RECHARGE =           0.0000

           TOTAL OUT =       31823.7402             TOTAL OUT =       7.7861E-04

            IN - OUT =          -0.8867              IN - OUT =      -5.4657E-08

 PERCENT DISCREPANCY =          -0.00     PERCENT DISCREPANCY =          -0.01






         TIME SUMMARY AT END OF TIME STEP    4 IN STRESS PERIOD   74
                    SECONDS     MINUTES      HOURS       DAYS        YEARS
                    -----------------------------------------------------------
   TIME STEP LENGTH  86400.      1440.0      24.000      1.0000     2.73785E-03
 STRESS PERIOD TIME 3.45600E+05  5760.0      96.000      4.0000     1.09514E-02
         TOTAL TIME 8.55360E+06 1.42560E+05  2376.0      99.000     0.27105    
1
1
                            STRESS PERIOD NO.   75, LENGTH =   86400.00    
                            -----------------------------------------------

                              NUMBER OF TIME STEPS =     1

                               MULTIPLIER FOR DELT =     1.000

                            INITIAL TIME STEP SIZE =   86400.00    

 REUSING RECH FROM LAST STRESS PERIOD

 CHD NO.   LAYER   ROW   COL    START HEAD        END HEAD         IFACE           
 ----------------------------------------------------------------------------------
      1      4      3      1       109.8           109.8           0.000    
      2      5      3      1       109.8           109.8           0.000    
      3      4      3      2       109.8           109.8           0.000    
      4      5      3      2       109.8           109.8           0.000    
      5      4      3      3       109.8           109.8           0.000    
      6      5      3      3       109.8           109.8           0.000    
      7      4      3      4       109.8           109.8           0.000    
      8      5      3      4       109.8           109.8           0.000    
      9      4      3      5       109.8           109.8           0.000    
     10      5      3      5       109.8           109.8           0.000    
     11      4      3      6       109.8           109.8           0.000    
     12      5      3      6       109.8           109.8           0.000    
     13      4      3      7       109.8           109.8           0.000    
     14      5      3      7       109.8           109.8           0.000    
     15      4      3      8       109.8           109.8           0.000    
     16      5      3      8       109.8           109.8           0.000    
     17      4      2      8       109.8           109.8           0.000    
     18      5      2      8       109.8           109.8           0.000    
     19      4      2      9       109.8           109.8           0.000    
     20      5      2      9       109.8           109.8           0.000    
     21      4      2     10       109.8           109.8           0.000    
     22      5      2     10       109.8           109.8           0.000    
     23      4      2     11       109.8           109.8           0.000    
     24      5      2     11       109.8           109.8           0.000    
     25      4      2     12       109.8           109.8           0.000    
     26      5      2     12       109.8           109.8           0.000    
     27      4      2     13       109.8           109.8           0.000    
     28      5      2     13       109.8           109.8           0.000    
     29      4      2     14       109.8           109.8           0.000    
     30      5      2     14       109.8           109.8           0.000    
     31      4      2     15       109.8           109.8           0.000    
     32      5      2     15       109.8           109.8           0.000    
     33      4      2     16       109.8           109.8           0.000    
     34      5      2     16       109.8           109.8           0.000    
     35      4      2     17       109.8           109.8           0.000    
     36      5      2     17       109.8           109.8           0.000    
     37      4      2     18       109.8           109.8           0.000    
     38      5      2     18       109.8           109.8           0.000    
     39      4      2     19       109.8           109.8           0.000    
     40      5      2     19       109.8           109.8           0.000    
     41      4      2     20       109.8           109.8           0.000    
     42      5      2     20       109.8           109.8           0.000    
     43      4      2     21       109.8           109.8           0.000    
     44      5      2     21       109.8           109.8           0.000    
     45      4      2     22       109.8           109.8           0.000    
     46      5      2     22       109.8           109.8           0.000    
     47      4      2     23       109.8           109.8           0.000    
     48      5      2     23       109.8           109.8           0.000    
     49      4      2     24       109.8           109.8           0.000    
     50      5      2     24       109.8           109.8           0.000    
     51      4      2     25       109.8           109.8           0.000    
     52      5      2     25       109.8           109.8           0.000    
     53      4      2     26       109.8           109.8           0.000    
     54      5      2     26       109.8           109.8           0.000    
     55      4      1     26       109.8           109.8           0.000    
     56      5      1     26       109.8           109.8           0.000    
     57      4      1     27       109.8           109.8           0.000    
     58      5      1     27       109.8           109.8           0.000    
     59      4      1     28       109.8           109.8           0.000    
     60      5      1     28       109.8           109.8           0.000    
     61      4      1     29       109.8           109.8           0.000    
     62      5      1     29       109.8           109.8           0.000    
     63      4      1     30       109.8           109.8           0.000    
     64      5      1     30       109.8           109.8           0.000    
     65      4      1     31       109.8           109.8           0.000    
     66      5      1     31       109.8           109.8           0.000    
     67      4      1     32       109.8           109.8           0.000    
     68      5      1     32       109.8           109.8           0.000    
     69      4      1     33       109.8           109.8           0.000    
     70      5      1     33       109.8           109.8           0.000    
     71      4      1     34       109.8           109.8           0.000    
     72      5      1     34       109.8           109.8           0.000    
     73      4      1     35       109.8           109.8           0.000    
     74      5      1     35       109.8           109.8           0.000    
     75      4     36     35       109.8           109.8           0.000    
     76      5     36     35       109.8           109.8           0.000    
     77      4     35     34       109.8           109.8           0.000    
     78      5     35     34       109.8           109.8           0.000    
     79      4     36     34       109.8           109.8           0.000    
     80      5     36     34       109.8           109.8           0.000    
     81      4     36     33       109.8           109.8           0.000    
     82      5     36     33       109.8           109.8           0.000    
     83      4     36     32       109.8           109.7           0.000    
     84      5     36     32       109.8           109.7           0.000    
     85      4     37     32       109.8           109.7           0.000    
     86      5     37     32       109.8           109.7           0.000    
     87      4     37     31       109.8           109.7           0.000    
     88      5     37     31       109.8           109.7           0.000    
     89      4     38     31       109.8           109.7           0.000    
     90      5     38     31       109.8           109.7           0.000    
     91      4     38     30       109.8           109.7           0.000    
     92      5     38     30       109.8           109.7           0.000    
     93      4     39     30       109.8           109.7           0.000    
     94      5     39     30       109.8           109.7           0.000    
     95      4     39     29       109.8           109.7           0.000    
     96      5     39     29       109.8           109.7           0.000    
     97      4     40     29       109.8           109.7           0.000    
     98      5     40     29       109.8           109.7           0.000    
     99      4     40     28       109.8           109.7           0.000    
    100      5     40     28       109.8           109.7           0.000    
    101      4     40     27       109.8           109.7           0.000    
    102      5     40     27       109.8           109.7           0.000    
    103      4     41     27       109.8           109.7           0.000    
    104      5     41     27       109.8           109.7           0.000    
    105      4     41     26       109.8           109.7           0.000    
    106      5     41     26       109.8           109.7           0.000    
    107      4     41     25       109.8           109.7           0.000    
    108      5     41     25       109.8           109.7           0.000    
    109      4     41     24       109.8           109.7           0.000    
    110      5     41     24       109.8           109.7           0.000    
    111      4     41     23       109.8           109.7           0.000    
    112      5     41     23       109.8           109.7           0.000    
    113      4     41     22       109.8           109.7           0.000    
    114      5     41     22       109.8           109.7           0.000    
    115      4     42     22       109.8           109.7           0.000    
    116      5     42     22       109.8           109.7           0.000    
    117      4     42     21       109.8           109.7           0.000    
    118      5     42     21       109.8           109.7           0.000    
    119      4     42     20       109.8           109.7           0.000    
    120      5     42     20       109.8           109.7           0.000    
    121      4     42     19       109.8           109.7           0.000    
    122      5     42     19       109.8           109.7           0.000    
    123      4     43     18       109.8           109.7           0.000    
    124      5     43     18       109.8           109.7           0.000    
    125      4     42     18       109.8           109.7           0.000    
    126      5     42     18       109.8           109.7           0.000    
    127      4     42     17       109.8           109.7           0.000    
    128      5     42     17       109.8           109.7           0.000    
    129      4     42     16       109.8           109.7           0.000    
    130      5     42     16       109.8           109.7           0.000    
    131      4     42     15       109.8           109.7           0.000    
    132      5     42     15       109.8           109.7           0.000    
    133      4     43     15       109.8           109.7           0.000    
    134      5     43     15       109.8           109.7           0.000    
    135      4     43     14       109.8           109.7           0.000    
    136      5     43     14       109.8           109.7           0.000    
    137      4     43     13       109.8           109.7           0.000    
    138      5     43     13       109.8           109.7           0.000    
    139      4     43     12       109.8           109.7           0.000    
    140      5     43     12       109.8           109.7           0.000    
    141      4     43     11       109.8           109.7           0.000    
    142      5     43     11       109.8           109.7           0.000    
    143      4     43     10       109.8           109.7           0.000    
    144      5     43     10       109.8           109.7           0.000    
    145      4     44     10       109.8           109.7           0.000    
    146      5     44     10       109.8           109.7           0.000    
    147      4     44      9       109.8           109.7           0.000    
    148      5     44      9       109.8           109.7           0.000    
    149      4     44      8       109.8           109.7           0.000    
    150      5     44      8       109.8           109.7           0.000    
    151      4     44      7       109.7           109.7           0.000    
    152      5     44      7       109.7           109.7           0.000    
    153      4     44      6       109.7           109.7           0.000    
    154      5     44      6       109.7           109.7           0.000    
    155      4     44      5       109.7           109.7           0.000    
    156      5     44      5       109.7           109.7           0.000    
    157      4     44      4       109.7           109.7           0.000    
    158      5     44      4       109.7           109.7           0.000    
    159      4     44      3       109.7           109.7           0.000    
    160      5     44      3       109.7           109.7           0.000    
    161      4     45      3       109.7           109.7           0.000    
    162      5     45      3       109.7           109.7           0.000    
    163      4     45      2       109.7           109.7           0.000    
    164      5     45      2       109.7           109.7           0.000    
    165      4     45      1       109.7           109.7           0.000    
    166      5     45      1       109.7           109.7           0.000    


    166 TIME-VARIANT SPECIFIED-HEAD CELLS

 SOLVING FOR HEAD 


     3 CALLS TO PCG ROUTINE FOR TIME STEP   1 IN STRESS PERIOD   75
    58 TOTAL ITERATIONS

 MAXIMUM HEAD CHANGE FOR EACH ITERATION (1 INDICATES THE FIRST INNER ITERATION):

    HEAD CHANGE    HEAD CHANGE    HEAD CHANGE    HEAD CHANGE    HEAD CHANGE 
   LAYER,ROW,COL  LAYER,ROW,COL  LAYER,ROW,COL  LAYER,ROW,COL  LAYER,ROW,COL
 ---------------------------------------------------------------------------
  1 -0.8778E-01  0  0.4857E-01  0 -0.2793E-01  0  0.2412E-01  0 -0.3173E-01
   (  5, 43,  5)  (  5, 35,  1)  (  5, 30,  2)  (  5, 41,  2)  (  5, 37,  1)
  0 -0.1764E-01  0 -0.2101E-01  0  0.2267E-01  0  0.1288E-01  0  0.1004E-01
   (  5, 39,  1)  (  5, 40,  1)  (  5, 37,  1)  (  5, 37,  6)  (  5, 40,  2)
  0  0.8690E-02  0 -0.8640E-02  0  0.3127E-02  0  0.4649E-02  0 -0.4167E-02
   (  5, 35,  9)  (  5, 33,  9)  (  5, 31,  4)  (  5, 31,  9)  (  5, 36,  8)
  0  0.2175E-02  0  0.2887E-02  0  0.1948E-02  0  0.1619E-02  0  0.1389E-02
   (  5, 37,  1)  (  5, 34,  9)  (  5, 15,  1)  (  5, 30, 10)  (  5, 36,  7)
  0  0.8817E-03  0  0.1112E-02  0 -0.5165E-03  0 -0.7981E-03  0  0.6615E-03
   (  5, 39,  4)  (  5, 32,  4)  (  5, 36,  4)  (  5, 13,  1)  (  5, 13,  1)
  0  0.4319E-03  0  0.2907E-03  0 -0.2102E-03  0  0.2057E-03  0 -0.1585E-03
   (  5, 37,  1)  (  5, 34,  3)  (  5, 35,  1)  (  5, 38,  1)  (  5, 36,  1)
  1  0.8543E-04  0 -0.4682E-04  0  0.8835E-04  0  0.5602E-04  0 -0.5806E-04
   (  5, 34,  1)  (  5, 29,  1)  (  5, 32,  3)  (  5, 38,  4)  (  5, 34,  3)
  0  0.4405E-04  0 -0.6033E-04  0  0.5397E-04  0 -0.5755E-04  0  0.3084E-04
   (  5, 33,  1)  (  5, 39,  5)  (  5, 37,  1)  (  5, 40,  1)  (  5, 37,  1)
  0  0.2470E-04  0 -0.1459E-04  0  0.1846E-04  0  0.1344E-04  0  0.1248E-04
   (  5, 35,  4)  (  5, 33,  2)  (  5, 28,  2)  (  5, 14,  1)  (  5, 39,  1)
  0 -0.8151E-05  0  0.6304E-05  0  0.4261E-05  0 -0.4779E-05  0  0.3682E-05
   (  5, 32,  9)  (  5, 34,  8)  (  5, 37,  4)  (  5, 38,  8)  (  5, 31,  9)
  0  0.2679E-05  0 -0.2517E-05  0  0.2069E-05  0 -0.2696E-05  0  0.1525E-05
   (  5, 32,  5)  (  5, 32,  1)  (  5, 35,  1)  (  5, 38,  1)  (  5, 40,  6)
  0 -0.1069E-05  0  0.8285E-06  1 -0.4858E-06
   (  5, 42,  6)  (  5, 37,  1)  (  5, 38,  2)

 MAXIMUM RESIDUAL FOR EACH ITERATION (1 INDICATES THE FIRST INNER ITERATION):

    RESIDUAL       RESIDUAL       RESIDUAL       RESIDUAL       RESIDUAL    
   LAYER,ROW,COL  LAYER,ROW,COL  LAYER,ROW,COL  LAYER,ROW,COL  LAYER,ROW,COL
 ---------------------------------------------------------------------------
  1  0.4451E-03  0  0.3400E-03  0  0.2881E-03  0  0.2522E-03  0  0.2137E-03
   (  4, 44,  2)  (  4, 44,  2)  (  4, 44,  2)  (  4, 35, 35)  (  4, 35, 35)
  0  0.1814E-03  0  0.1537E-03  0  0.1226E-03  0  0.9837E-04  0  0.7555E-04
   (  4, 35, 35)  (  3, 40, 27)  (  3, 40, 27)  (  3, 40, 27)  (  3, 40, 27)
  0  0.5643E-04  0 -0.4526E-04  0 -0.4318E-04  0 -0.3488E-04  0 -0.2805E-04
   (  3, 40, 27)  (  3, 35, 35)  (  3, 35, 35)  (  3, 35, 35)  (  3, 35, 35)
  0 -0.2547E-04  0 -0.1978E-04  0 -0.1483E-04  0 -0.1269E-04  0 -0.1078E-04
   (  3, 35, 35)  (  4, 43,  4)  (  4, 34, 35)  (  4, 34, 35)  (  4, 34, 35)
  0 -0.9945E-05  0 -0.8672E-05  0 -0.8223E-05  0 -0.6481E-05  0 -0.5147E-05
   (  4, 34, 35)  (  4, 34, 35)  (  4, 34, 35)  (  4, 34, 35)  (  4, 34, 35)
  0 -0.4395E-05  0 -0.3791E-05  0 -0.3537E-05  0 -0.2624E-05  0 -0.1844E-05
   (  4, 34, 35)  (  4, 34, 35)  (  4, 34, 35)  (  4, 34, 35)  (  4, 34, 35)
  1 -0.1736E-05  0 -0.1708E-05  0 -0.1455E-05  0 -0.1301E-05  0 -0.1126E-05
   (  4, 34, 35)  (  4, 34, 35)  (  4, 34, 35)  (  4, 34, 35)  (  4, 34, 35)
  0 -0.9954E-06  0 -0.8207E-06  0 -0.6887E-06  0 -0.4990E-06  0 -0.3783E-06
   (  4, 34, 35)  (  4, 34, 35)  (  4, 34, 35)  (  4, 34, 35)  (  4, 34, 35)
  0 -0.2894E-06  0  0.2486E-06  0  0.2052E-06  0  0.1592E-06  0  0.1250E-06
   (  4, 34, 35)  (  4, 35, 35)  (  4, 35, 35)  (  4, 35, 35)  (  4, 35, 35)
  0  0.9306E-07  0  0.7711E-07  0  0.6948E-07  0  0.5384E-07  0  0.3987E-07
   (  4, 35, 35)  (  4, 35, 35)  (  4, 35, 35)  (  4, 35, 35)  (  4, 35, 35)
  0  0.3534E-07  0  0.2803E-07  0  0.2424E-07  0  0.1864E-07  0  0.1369E-07
   (  4, 35, 35)  (  4, 35, 35)  (  4, 35, 35)  (  4, 35, 35)  (  4, 35, 35)
  0  0.1002E-07  0  0.7742E-08  1  0.7450E-08
   (  4, 35, 35)  (  4, 35, 35)  (  4, 35, 35)



 OUTPUT CONTROL FOR STRESS PERIOD   75   TIME STEP    1
    SAVE HEAD FOR ALL LAYERS
    SAVE DRAWDOWN FOR ALL LAYERS
    SAVE BUDGET
    PRINT BUDGET
 UBDSV1 SAVING "         STORAGE" ON UNIT   9 AT TIME STEP  1, STRESS PERIOD  75
 UBDSV2 SAVING "   CONSTANT HEAD" ON UNIT   9 AT TIME STEP  1, STRESS PERIOD  75
 UBDSV1 SAVING "FLOW RIGHT FACE " ON UNIT   9 AT TIME STEP  1, STRESS PERIOD  75
 UBDSV1 SAVING "FLOW FRONT FACE " ON UNIT   9 AT TIME STEP  1, STRESS PERIOD  75
 UBDSV1 SAVING "FLOW LOWER FACE " ON UNIT   9 AT TIME STEP  1, STRESS PERIOD  75
 UBDSV3 SAVING "        RECHARGE" ON UNIT   9 AT TIME STEP  1, STRESS PERIOD  75

 HEAD WILL BE SAVED ON UNIT   37 AT END OF TIME STEP    1, STRESS PERIOD   75

 DRAWDOWN WILL BE SAVED ON UNIT   38 AT END OF TIME STEP    1, STRESS PERIOD   75
1
  VOLUMETRIC BUDGET FOR ENTIRE MODEL AT END OF TIME STEP    1, STRESS PERIOD  75
  ------------------------------------------------------------------------------

     CUMULATIVE VOLUMES      L**3       RATES FOR THIS TIME STEP      L**3/T
     ------------------                 ------------------------

           IN:                                      IN:
           ---                                      ---
             STORAGE =       11239.1592               STORAGE =       4.3848E-04
       CONSTANT HEAD =       19820.6348         CONSTANT HEAD =       8.4054E-04
            RECHARGE =         882.3930              RECHARGE =       1.0213E-04

            TOTAL IN =       31942.1855              TOTAL IN =       1.3811E-03

          OUT:                                     OUT:
          ----                                     ----
             STORAGE =        7511.2974               STORAGE =       1.8522E-05
       CONSTANT HEAD =       24431.7871         CONSTANT HEAD =       1.3628E-03
            RECHARGE =           0.0000              RECHARGE =           0.0000

           TOTAL OUT =       31943.0840             TOTAL OUT =       1.3813E-03

            IN - OUT =          -0.8984              IN - OUT =      -1.5425E-07

 PERCENT DISCREPANCY =          -0.00     PERCENT DISCREPANCY =          -0.01






         TIME SUMMARY AT END OF TIME STEP    1 IN STRESS PERIOD   75
                    SECONDS     MINUTES      HOURS       DAYS        YEARS
                    -----------------------------------------------------------
   TIME STEP LENGTH  86400.      1440.0      24.000      1.0000     2.73785E-03
 STRESS PERIOD TIME  86400.      1440.0      24.000      1.0000     2.73785E-03
         TOTAL TIME 8.64000E+06 1.44000E+05  2400.0      100.00     0.27379    
1
1
                            STRESS PERIOD NO.   76, LENGTH =   86400.00    
                            -----------------------------------------------

                              NUMBER OF TIME STEPS =     1

                               MULTIPLIER FOR DELT =     1.000

                            INITIAL TIME STEP SIZE =   86400.00    

 REUSING RECH FROM LAST STRESS PERIOD

 CHD NO.   LAYER   ROW   COL    START HEAD        END HEAD         IFACE           
 ----------------------------------------------------------------------------------
      1      4      3      1       109.8           109.8           0.000    
      2      5      3      1       109.8           109.8           0.000    
      3      4      3      2       109.8           109.8           0.000    
      4      5      3      2       109.8           109.8           0.000    
      5      4      3      3       109.8           109.8           0.000    
      6      5      3      3       109.8           109.8           0.000    
      7      4      3      4       109.8           109.8           0.000    
      8      5      3      4       109.8           109.8           0.000    
      9      4      3      5       109.8           109.8           0.000    
     10      5      3      5       109.8           109.8           0.000    
     11      4      3      6       109.8           109.8           0.000    
     12      5      3      6       109.8           109.8           0.000    
     13      4      3      7       109.8           109.8           0.000    
     14      5      3      7       109.8           109.8           0.000    
     15      4      3      8       109.8           109.8           0.000    
     16      5      3      8       109.8           109.8           0.000    
     17      4      2      8       109.8           109.8           0.000    
     18      5      2      8       109.8           109.8           0.000    
     19      4      2      9       109.8           109.8           0.000    
     20      5      2      9       109.8           109.8           0.000    
     21      4      2     10       109.8           109.8           0.000    
     22      5      2     10       109.8           109.8           0.000    
     23      4      2     11       109.8           109.8           0.000    
     24      5      2     11       109.8           109.8           0.000    
     25      4      2     12       109.8           109.8           0.000    
     26      5      2     12       109.8           109.8           0.000    
     27      4      2     13       109.8           109.8           0.000    
     28      5      2     13       109.8           109.8           0.000    
     29      4      2     14       109.8           109.8           0.000    
     30      5      2     14       109.8           109.8           0.000    
     31      4      2     15       109.8           109.8           0.000    
     32      5      2     15       109.8           109.8           0.000    
     33      4      2     16       109.8           109.8           0.000    
     34      5      2     16       109.8           109.8           0.000    
     35      4      2     17       109.8           109.8           0.000    
     36      5      2     17       109.8           109.8           0.000    
     37      4      2     18       109.8           109.8           0.000    
     38      5      2     18       109.8           109.8           0.000    
     39      4      2     19       109.8           109.8           0.000    
     40      5      2     19       109.8           109.8           0.000    
     41      4      2     20       109.8           109.8           0.000    
     42      5      2     20       109.8           109.8           0.000    
     43      4      2     21       109.8           109.8           0.000    
     44      5      2     21       109.8           109.8           0.000    
     45      4      2     22       109.8           109.8           0.000    
     46      5      2     22       109.8           109.8           0.000    
     47      4      2     23       109.8           109.8           0.000    
     48      5      2     23       109.8           109.8           0.000    
     49      4      2     24       109.8           109.8           0.000    
     50      5      2     24       109.8           109.8           0.000    
     51      4      2     25       109.8           109.8           0.000    
     52      5      2     25       109.8           109.8           0.000    
     53      4      2     26       109.8           109.8           0.000    
     54      5      2     26       109.8           109.8           0.000    
     55      4      1     26       109.8           109.8           0.000    
     56      5      1     26       109.8           109.8           0.000    
     57      4      1     27       109.8           109.8           0.000    
     58      5      1     27       109.8           109.8           0.000    
     59      4      1     28       109.8           109.8           0.000    
     60      5      1     28       109.8           109.8           0.000    
     61      4      1     29       109.8           109.8           0.000    
     62      5      1     29       109.8           109.8           0.000    
     63      4      1     30       109.8           109.8           0.000    
     64      5      1     30       109.8           109.8           0.000    
     65      4      1     31       109.8           109.8           0.000    
     66      5      1     31       109.8           109.8           0.000    
     67      4      1     32       109.8           109.8           0.000    
     68      5      1     32       109.8           109.8           0.000    
     69      4      1     33       109.8           109.8           0.000    
     70      5      1     33       109.8           109.8           0.000    
     71      4      1     34       109.8           109.8           0.000    
     72      5      1     34       109.8           109.8           0.000    
     73      4      1     35       109.8           109.8           0.000    
     74      5      1     35       109.8           109.8           0.000    
     75      4     36     35       109.8           109.8           0.000    
     76      5     36     35       109.8           109.8           0.000    
     77      4     35     34       109.8           109.8           0.000    
     78      5     35     34       109.8           109.8           0.000    
     79      4     36     34       109.8           109.8           0.000    
     80      5     36     34       109.8           109.8           0.000    
     81      4     36     33       109.8           109.8           0.000    
     82      5     36     33       109.8           109.8           0.000    
     83      4     36     32       109.7           109.8           0.000    
     84      5     36     32       109.7           109.8           0.000    
     85      4     37     32       109.7           109.8           0.000    
     86      5     37     32       109.7           109.8           0.000    
     87      4     37     31       109.7           109.8           0.000    
     88      5     37     31       109.7           109.8           0.000    
     89      4     38     31       109.7           109.8           0.000    
     90      5     38     31       109.7           109.8           0.000    
     91      4     38     30       109.7           109.8           0.000    
     92      5     38     30       109.7           109.8           0.000    
     93      4     39     30       109.7           109.8           0.000    
     94      5     39     30       109.7           109.8           0.000    
     95      4     39     29       109.7           109.8           0.000    
     96      5     39     29       109.7           109.8           0.000    
     97      4     40     29       109.7           109.8           0.000    
     98      5     40     29       109.7           109.8           0.000    
     99      4     40     28       109.7           109.8           0.000    
    100      5     40     28       109.7           109.8           0.000    
    101      4     40     27       109.7           109.8           0.000    
    102      5     40     27       109.7           109.8           0.000    
    103      4     41     27       109.7           109.8           0.000    
    104      5     41     27       109.7           109.8           0.000    
    105      4     41     26       109.7           109.8           0.000    
    106      5     41     26       109.7           109.8           0.000    
    107      4     41     25       109.7           109.8           0.000    
    108      5     41     25       109.7           109.8           0.000    
    109      4     41     24       109.7           109.8           0.000    
    110      5     41     24       109.7           109.8           0.000    
    111      4     41     23       109.7           109.8           0.000    
    112      5     41     23       109.7           109.8           0.000    
    113      4     41     22       109.7           109.8           0.000    
    114      5     41     22       109.7           109.8           0.000    
    115      4     42     22       109.7           109.8           0.000    
    116      5     42     22       109.7           109.8           0.000    
    117      4     42     21       109.7           109.8           0.000    
    118      5     42     21       109.7           109.8           0.000    
    119      4     42     20       109.7           109.8           0.000    
    120      5     42     20       109.7           109.8           0.000    
    121      4     42     19       109.7           109.8           0.000    
    122      5     42     19       109.7           109.8           0.000    
    123      4     43     18       109.7           109.8           0.000    
    124      5     43     18       109.7           109.8           0.000    
    125      4     42     18       109.7           109.8           0.000    
    126      5     42     18       109.7           109.8           0.000    
    127      4     42     17       109.7           109.8           0.000    
    128      5     42     17       109.7           109.8           0.000    
    129      4     42     16       109.7           109.8           0.000    
    130      5     42     16       109.7           109.8           0.000    
    131      4     42     15       109.7           109.8           0.000    
    132      5     42     15       109.7           109.8           0.000    
    133      4     43     15       109.7           109.8           0.000    
    134      5     43     15       109.7           109.8           0.000    
    135      4     43     14       109.7           109.8           0.000    
    136      5     43     14       109.7           109.8           0.000    
    137      4     43     13       109.7           109.8           0.000    
    138      5     43     13       109.7           109.8           0.000    
    139      4     43     12       109.7           109.8           0.000    
    140      5     43     12       109.7           109.8           0.000    
    141      4     43     11       109.7           109.8           0.000    
    142      5     43     11       109.7           109.8           0.000    
    143      4     43     10       109.7           109.7           0.000    
    144      5     43     10       109.7           109.7           0.000    
    145      4     44     10       109.7           109.7           0.000    
    146      5     44     10       109.7           109.7           0.000    
    147      4     44      9       109.7           109.7           0.000    
    148      5     44      9       109.7           109.7           0.000    
    149      4     44      8       109.7           109.7           0.000    
    150      5     44      8       109.7           109.7           0.000    
    151      4     44      7       109.7           109.7           0.000    
    152      5     44      7       109.7           109.7           0.000    
    153      4     44      6       109.7           109.7           0.000    
    154      5     44      6       109.7           109.7           0.000    
    155      4     44      5       109.7           109.7           0.000    
    156      5     44      5       109.7           109.7           0.000    
    157      4     44      4       109.7           109.7           0.000    
    158      5     44      4       109.7           109.7           0.000    
    159      4     44      3       109.7           109.7           0.000    
    160      5     44      3       109.7           109.7           0.000    
    161      4     45      3       109.7           109.7           0.000    
    162      5     45      3       109.7           109.7           0.000    
    163      4     45      2       109.7           109.7           0.000    
    164      5     45      2       109.7           109.7           0.000    
    165      4     45      1       109.7           109.7           0.000    
    166      5     45      1       109.7           109.7           0.000    


    166 TIME-VARIANT SPECIFIED-HEAD CELLS

 SOLVING FOR HEAD 


     3 CALLS TO PCG ROUTINE FOR TIME STEP   1 IN STRESS PERIOD   76
    59 TOTAL ITERATIONS

 MAXIMUM HEAD CHANGE FOR EACH ITERATION (1 INDICATES THE FIRST INNER ITERATION):

    HEAD CHANGE    HEAD CHANGE    HEAD CHANGE    HEAD CHANGE    HEAD CHANGE 
   LAYER,ROW,COL  LAYER,ROW,COL  LAYER,ROW,COL  LAYER,ROW,COL  LAYER,ROW,COL
 ---------------------------------------------------------------------------
  1  0.8133E-01  0 -0.4662E-01  0  0.2674E-01  0 -0.2248E-01  0  0.3060E-01
   (  5, 43,  5)  (  5, 35,  1)  (  5, 31,  2)  (  5, 41,  2)  (  5, 37,  1)
  0  0.1688E-01  0  0.1897E-01  0 -0.2033E-01  0 -0.1219E-01  0 -0.8758E-02
   (  5, 39,  1)  (  5, 40,  1)  (  5, 37,  1)  (  5, 37,  6)  (  5, 40,  1)
  0 -0.7662E-02  0  0.4385E-02  0 -0.4472E-02  0 -0.4077E-02  0  0.4538E-02
   (  5, 35,  9)  (  5, 32,  8)  (  5, 31,  4)  (  5, 31,  9)  (  5, 36,  8)
  0 -0.2300E-02  0 -0.2249E-02  0  0.1927E-02  0 -0.1594E-02  0 -0.1237E-02
   (  5, 33,  8)  (  5, 36,  4)  (  5, 32,  9)  (  5, 30, 10)  (  5, 38,  4)
  0  0.9559E-03  0 -0.7726E-03  0  0.6608E-03  0  0.7799E-03  0 -0.5736E-03
   (  5, 37,  1)  (  5, 32,  4)  (  5, 30,  5)  (  5, 14,  1)  (  5, 13,  1)
  0 -0.3558E-03  0  0.2465E-03  0 -0.2110E-03  0  0.1770E-03  0  0.1761E-03
   (  5, 37,  1)  (  5, 39,  4)  (  5, 35,  3)  (  5, 34,  4)  (  5, 41,  2)
  1  0.9466E-04  0 -0.6050E-04  0  0.9404E-04  0  0.6842E-04  0 -0.5348E-04
   (  5, 30,  4)  (  5, 32,  3)  (  5, 41,  2)  (  5, 34,  3)  (  5, 35,  1)
  0  0.7610E-04  0  0.3768E-04  0 -0.4172E-04  0  0.3029E-04  0 -0.2577E-04
   (  5, 37,  1)  (  5, 40,  5)  (  5, 37,  1)  (  5, 34,  1)  (  5, 37,  1)
  0  0.2229E-04  0 -0.1645E-04  0 -0.1742E-04  0  0.1200E-04  0  0.1109E-04
   (  5, 31,  4)  (  5, 35,  4)  (  5, 41,  2)  (  5, 40,  2)  (  5, 35,  9)
  0 -0.7146E-05  0  0.4988E-05  0  0.6892E-05  0  0.4031E-05  0 -0.2485E-05
   (  5, 39,  1)  (  5, 36,  1)  (  5, 32,  9)  (  5, 35,  2)  (  5, 33,  3)
  0 -0.3833E-05  0 -0.3196E-05  0  0.1998E-05  0 -0.1784E-05  0 -0.1262E-05
   (  5, 14,  1)  (  5, 36,  1)  (  5, 38,  1)  (  5, 40,  5)  (  5, 40,  1)
  0 -0.1134E-05  0 -0.1083E-05  0  0.7226E-06  1  0.3937E-06
   (  5, 35,  6)  (  5, 37,  1)  (  5, 40,  1)  (  5, 29,  2)

 MAXIMUM RESIDUAL FOR EACH ITERATION (1 INDICATES THE FIRST INNER ITERATION):

    RESIDUAL       RESIDUAL       RESIDUAL       RESIDUAL       RESIDUAL    
   LAYER,ROW,COL  LAYER,ROW,COL  LAYER,ROW,COL  LAYER,ROW,COL  LAYER,ROW,COL
 ---------------------------------------------------------------------------
  1 -0.3607E-03  0 -0.2684E-03  0 -0.2230E-03  0 -0.1982E-03  0 -0.1651E-03
   (  4, 44,  2)  (  4, 44,  2)  (  4, 44,  2)  (  4, 35, 35)  (  4, 35, 35)
  0 -0.1416E-03  0 -0.1191E-03  0 -0.9464E-04  0 -0.7489E-04  0  0.6212E-04
   (  3, 40, 27)  (  3, 40, 27)  (  3, 40, 27)  (  3, 40, 27)  (  4, 43,  4)
  0  0.5011E-04  0  0.4503E-04  0  0.3783E-04  0  0.2886E-04  0  0.2272E-04
   (  4, 43,  4)  (  4, 43,  4)  (  4, 43,  4)  (  4, 43,  4)  (  4, 44,  2)
  0  0.2032E-04  0  0.1818E-04  0  0.1438E-04  0  0.1164E-04  0  0.9127E-05
   (  4, 44,  2)  (  4, 44,  2)  (  4, 44,  2)  (  4, 44,  2)  (  4, 44,  2)
  0  0.8032E-05  0  0.7224E-05  0  0.6212E-05  0  0.4918E-05  0  0.3959E-05
   (  4, 44,  2)  (  4, 44,  2)  (  4, 34, 35)  (  4, 34, 35)  (  4, 34, 35)
  0  0.3105E-05  0  0.2768E-05  0  0.2416E-05  0  0.2071E-05  0  0.1478E-05
   (  4, 34, 35)  (  4, 34, 35)  (  4, 34, 35)  (  4, 34, 35)  (  4, 34, 35)
  1  0.1417E-05  0  0.1391E-05  0  0.1205E-05  0  0.1109E-05  0  0.1011E-05
   (  4, 34, 35)  (  4, 34, 35)  (  4, 34, 35)  (  4, 34, 35)  (  4, 34, 35)
  0  0.8011E-06  0  0.6701E-06  0  0.5317E-06  0  0.3654E-06  0  0.2729E-06
   (  4, 34, 35)  (  4, 34, 35)  (  4, 34, 35)  (  4, 34, 35)  (  4, 34, 35)
  0  0.2280E-06  0  0.1976E-06  0 -0.1306E-06  0 -0.1036E-06  0 -0.7885E-07
   (  4, 34, 35)  (  4, 34, 35)  (  4, 35, 35)  (  4, 35, 35)  (  4, 35, 35)
  0 -0.6336E-07  0 -0.5729E-07  0 -0.4509E-07  0 -0.3458E-07  0 -0.3207E-07
   (  4, 35, 35)  (  4, 35, 35)  (  4, 35, 35)  (  4, 35, 35)  (  4, 35, 35)
  0 -0.2528E-07  0 -0.1912E-07  0 -0.1662E-07  0 -0.1230E-07  0 -0.9149E-08
   (  4, 35, 35)  (  4, 35, 35)  (  4, 35, 35)  (  4, 35, 35)  (  3, 41, 22)
  0 -0.7454E-08  0 -0.6274E-08  0 -0.5136E-08  1 -0.5095E-08
   (  3, 41, 22)  (  3, 41, 22)  (  3, 41, 22)  (  3, 41, 22)



 OUTPUT CONTROL FOR STRESS PERIOD   76   TIME STEP    1
    SAVE HEAD FOR ALL LAYERS
    SAVE DRAWDOWN FOR ALL LAYERS
    SAVE BUDGET
    PRINT BUDGET
 UBDSV1 SAVING "         STORAGE" ON UNIT   9 AT TIME STEP  1, STRESS PERIOD  76
 UBDSV2 SAVING "   CONSTANT HEAD" ON UNIT   9 AT TIME STEP  1, STRESS PERIOD  76
 UBDSV1 SAVING "FLOW RIGHT FACE " ON UNIT   9 AT TIME STEP  1, STRESS PERIOD  76
 UBDSV1 SAVING "FLOW FRONT FACE " ON UNIT   9 AT TIME STEP  1, STRESS PERIOD  76
 UBDSV1 SAVING "FLOW LOWER FACE " ON UNIT   9 AT TIME STEP  1, STRESS PERIOD  76
 UBDSV3 SAVING "        RECHARGE" ON UNIT   9 AT TIME STEP  1, STRESS PERIOD  76

 HEAD WILL BE SAVED ON UNIT   37 AT END OF TIME STEP    1, STRESS PERIOD   76

 DRAWDOWN WILL BE SAVED ON UNIT   38 AT END OF TIME STEP    1, STRESS PERIOD   76
1
  VOLUMETRIC BUDGET FOR ENTIRE MODEL AT END OF TIME STEP    1, STRESS PERIOD  76
  ------------------------------------------------------------------------------

     CUMULATIVE VOLUMES      L**3       RATES FOR THIS TIME STEP      L**3/T
     ------------------                 ------------------------

           IN:                                      IN:
           ---                                      ---
             STORAGE =       11239.1592               STORAGE =           0.0000
       CONSTANT HEAD =       19912.8984         CONSTANT HEAD =       1.0679E-03
            RECHARGE =         891.2169              RECHARGE =       1.0213E-04

            TOTAL IN =       32043.2754              TOTAL IN =       1.1700E-03

          OUT:                                     OUT:
          ----                                     ----
             STORAGE =        7556.6992               STORAGE =       5.2548E-04
       CONSTANT HEAD =       24487.4727         CONSTANT HEAD =       6.4451E-04
            RECHARGE =           0.0000              RECHARGE =           0.0000

           TOTAL OUT =       32044.1719             TOTAL OUT =       1.1700E-03

            IN - OUT =          -0.8965              IN - OUT =       3.6089E-09

 PERCENT DISCREPANCY =          -0.00     PERCENT DISCREPANCY =           0.00






         TIME SUMMARY AT END OF TIME STEP    1 IN STRESS PERIOD   76
                    SECONDS     MINUTES      HOURS       DAYS        YEARS
                    -----------------------------------------------------------
   TIME STEP LENGTH  86400.      1440.0      24.000      1.0000     2.73785E-03
 STRESS PERIOD TIME  86400.      1440.0      24.000      1.0000     2.73785E-03
         TOTAL TIME 8.72640E+06 1.45440E+05  2424.0      101.00     0.27652    
1
1
                            STRESS PERIOD NO.   77, LENGTH =   86400.00    
                            -----------------------------------------------

                              NUMBER OF TIME STEPS =     1

                               MULTIPLIER FOR DELT =     1.000

                            INITIAL TIME STEP SIZE =   86400.00    

 REUSING RECH FROM LAST STRESS PERIOD

 CHD NO.   LAYER   ROW   COL    START HEAD        END HEAD         IFACE           
 ----------------------------------------------------------------------------------
      1      4      3      1       109.8           109.8           0.000    
      2      5      3      1       109.8           109.8           0.000    
      3      4      3      2       109.8           109.8           0.000    
      4      5      3      2       109.8           109.8           0.000    
      5      4      3      3       109.8           109.8           0.000    
      6      5      3      3       109.8           109.8           0.000    
      7      4      3      4       109.8           109.8           0.000    
      8      5      3      4       109.8           109.8           0.000    
      9      4      3      5       109.8           109.8           0.000    
     10      5      3      5       109.8           109.8           0.000    
     11      4      3      6       109.8           109.8           0.000    
     12      5      3      6       109.8           109.8           0.000    
     13      4      3      7       109.8           109.8           0.000    
     14      5      3      7       109.8           109.8           0.000    
     15      4      3      8       109.8           109.8           0.000    
     16      5      3      8       109.8           109.8           0.000    
     17      4      2      8       109.8           109.8           0.000    
     18      5      2      8       109.8           109.8           0.000    
     19      4      2      9       109.8           109.8           0.000    
     20      5      2      9       109.8           109.8           0.000    
     21      4      2     10       109.8           109.8           0.000    
     22      5      2     10       109.8           109.8           0.000    
     23      4      2     11       109.8           109.8           0.000    
     24      5      2     11       109.8           109.8           0.000    
     25      4      2     12       109.8           109.8           0.000    
     26      5      2     12       109.8           109.8           0.000    
     27      4      2     13       109.8           109.8           0.000    
     28      5      2     13       109.8           109.8           0.000    
     29      4      2     14       109.8           109.8           0.000    
     30      5      2     14       109.8           109.8           0.000    
     31      4      2     15       109.8           109.8           0.000    
     32      5      2     15       109.8           109.8           0.000    
     33      4      2     16       109.8           109.8           0.000    
     34      5      2     16       109.8           109.8           0.000    
     35      4      2     17       109.8           109.8           0.000    
     36      5      2     17       109.8           109.8           0.000    
     37      4      2     18       109.8           109.8           0.000    
     38      5      2     18       109.8           109.8           0.000    
     39      4      2     19       109.8           109.8           0.000    
     40      5      2     19       109.8           109.8           0.000    
     41      4      2     20       109.8           109.8           0.000    
     42      5      2     20       109.8           109.8           0.000    
     43      4      2     21       109.8           109.8           0.000    
     44      5      2     21       109.8           109.8           0.000    
     45      4      2     22       109.8           109.8           0.000    
     46      5      2     22       109.8           109.8           0.000    
     47      4      2     23       109.8           109.8           0.000    
     48      5      2     23       109.8           109.8           0.000    
     49      4      2     24       109.8           109.8           0.000    
     50      5      2     24       109.8           109.8           0.000    
     51      4      2     25       109.8           109.8           0.000    
     52      5      2     25       109.8           109.8           0.000    
     53      4      2     26       109.8           109.8           0.000    
     54      5      2     26       109.8           109.8           0.000    
     55      4      1     26       109.8           109.8           0.000    
     56      5      1     26       109.8           109.8           0.000    
     57      4      1     27       109.8           109.8           0.000    
     58      5      1     27       109.8           109.8           0.000    
     59      4      1     28       109.8           109.8           0.000    
     60      5      1     28       109.8           109.8           0.000    
     61      4      1     29       109.8           109.8           0.000    
     62      5      1     29       109.8           109.8           0.000    
     63      4      1     30       109.8           109.8           0.000    
     64      5      1     30       109.8           109.8           0.000    
     65      4      1     31       109.8           109.8           0.000    
     66      5      1     31       109.8           109.8           0.000    
     67      4      1     32       109.8           109.8           0.000    
     68      5      1     32       109.8           109.8           0.000    
     69      4      1     33       109.8           109.8           0.000    
     70      5      1     33       109.8           109.8           0.000    
     71      4      1     34       109.8           109.8           0.000    
     72      5      1     34       109.8           109.8           0.000    
     73      4      1     35       109.8           109.8           0.000    
     74      5      1     35       109.8           109.8           0.000    
     75      4     36     35       109.8           109.8           0.000    
     76      5     36     35       109.8           109.8           0.000    
     77      4     35     34       109.8           109.8           0.000    
     78      5     35     34       109.8           109.8           0.000    
     79      4     36     34       109.8           109.8           0.000    
     80      5     36     34       109.8           109.8           0.000    
     81      4     36     33       109.8           109.8           0.000    
     82      5     36     33       109.8           109.8           0.000    
     83      4     36     32       109.8           109.8           0.000    
     84      5     36     32       109.8           109.8           0.000    
     85      4     37     32       109.8           109.8           0.000    
     86      5     37     32       109.8           109.8           0.000    
     87      4     37     31       109.8           109.8           0.000    
     88      5     37     31       109.8           109.8           0.000    
     89      4     38     31       109.8           109.8           0.000    
     90      5     38     31       109.8           109.8           0.000    
     91      4     38     30       109.8           109.8           0.000    
     92      5     38     30       109.8           109.8           0.000    
     93      4     39     30       109.8           109.8           0.000    
     94      5     39     30       109.8           109.8           0.000    
     95      4     39     29       109.8           109.8           0.000    
     96      5     39     29       109.8           109.8           0.000    
     97      4     40     29       109.8           109.8           0.000    
     98      5     40     29       109.8           109.8           0.000    
     99      4     40     28       109.8           109.8           0.000    
    100      5     40     28       109.8           109.8           0.000    
    101      4     40     27       109.8           109.8           0.000    
    102      5     40     27       109.8           109.8           0.000    
    103      4     41     27       109.8           109.8           0.000    
    104      5     41     27       109.8           109.8           0.000    
    105      4     41     26       109.8           109.8           0.000    
    106      5     41     26       109.8           109.8           0.000    
    107      4     41     25       109.8           109.8           0.000    
    108      5     41     25       109.8           109.8           0.000    
    109      4     41     24       109.8           109.8           0.000    
    110      5     41     24       109.8           109.8           0.000    
    111      4     41     23       109.8           109.8           0.000    
    112      5     41     23       109.8           109.8           0.000    
    113      4     41     22       109.8           109.8           0.000    
    114      5     41     22       109.8           109.8           0.000    
    115      4     42     22       109.8           109.8           0.000    
    116      5     42     22       109.8           109.8           0.000    
    117      4     42     21       109.8           109.8           0.000    
    118      5     42     21       109.8           109.8           0.000    
    119      4     42     20       109.8           109.8           0.000    
    120      5     42     20       109.8           109.8           0.000    
    121      4     42     19       109.8           109.8           0.000    
    122      5     42     19       109.8           109.8           0.000    
    123      4     43     18       109.8           109.8           0.000    
    124      5     43     18       109.8           109.8           0.000    
    125      4     42     18       109.8           109.8           0.000    
    126      5     42     18       109.8           109.8           0.000    
    127      4     42     17       109.8           109.8           0.000    
    128      5     42     17       109.8           109.8           0.000    
    129      4     42     16       109.8           109.7           0.000    
    130      5     42     16       109.8           109.7           0.000    
    131      4     42     15       109.8           109.7           0.000    
    132      5     42     15       109.8           109.7           0.000    
    133      4     43     15       109.8           109.7           0.000    
    134      5     43     15       109.8           109.7           0.000    
    135      4     43     14       109.8           109.7           0.000    
    136      5     43     14       109.8           109.7           0.000    
    137      4     43     13       109.8           109.7           0.000    
    138      5     43     13       109.8           109.7           0.000    
    139      4     43     12       109.8           109.7           0.000    
    140      5     43     12       109.8           109.7           0.000    
    141      4     43     11       109.8           109.7           0.000    
    142      5     43     11       109.8           109.7           0.000    
    143      4     43     10       109.7           109.7           0.000    
    144      5     43     10       109.7           109.7           0.000    
    145      4     44     10       109.7           109.7           0.000    
    146      5     44     10       109.7           109.7           0.000    
    147      4     44      9       109.7           109.7           0.000    
    148      5     44      9       109.7           109.7           0.000    
    149      4     44      8       109.7           109.7           0.000    
    150      5     44      8       109.7           109.7           0.000    
    151      4     44      7       109.7           109.7           0.000    
    152      5     44      7       109.7           109.7           0.000    
    153      4     44      6       109.7           109.7           0.000    
    154      5     44      6       109.7           109.7           0.000    
    155      4     44      5       109.7           109.7           0.000    
    156      5     44      5       109.7           109.7           0.000    
    157      4     44      4       109.7           109.7           0.000    
    158      5     44      4       109.7           109.7           0.000    
    159      4     44      3       109.7           109.7           0.000    
    160      5     44      3       109.7           109.7           0.000    
    161      4     45      3       109.7           109.7           0.000    
    162      5     45      3       109.7           109.7           0.000    
    163      4     45      2       109.7           109.7           0.000    
    164      5     45      2       109.7           109.7           0.000    
    165      4     45      1       109.7           109.7           0.000    
    166      5     45      1       109.7           109.7           0.000    


    166 TIME-VARIANT SPECIFIED-HEAD CELLS

 SOLVING FOR HEAD 


     3 CALLS TO PCG ROUTINE FOR TIME STEP   1 IN STRESS PERIOD   77
    52 TOTAL ITERATIONS

 MAXIMUM HEAD CHANGE FOR EACH ITERATION (1 INDICATES THE FIRST INNER ITERATION):

    HEAD CHANGE    HEAD CHANGE    HEAD CHANGE    HEAD CHANGE    HEAD CHANGE 
   LAYER,ROW,COL  LAYER,ROW,COL  LAYER,ROW,COL  LAYER,ROW,COL  LAYER,ROW,COL
 ---------------------------------------------------------------------------
  1 -0.2871E-01  0  0.1852E-01  0 -0.1222E-01  0  0.9282E-02  0 -0.1392E-01
   (  5, 43,  5)  (  5, 36,  1)  (  5, 32,  2)  (  5, 28,  3)  (  5, 37,  1)
  0  0.8113E-02  0 -0.6277E-02  0  0.7721E-02  0  0.4859E-02  0  0.3081E-02
   (  5, 35,  2)  (  5, 40,  1)  (  5, 38,  1)  (  5, 37,  6)  (  5, 40,  1)
  0 -0.2916E-02  0  0.2418E-02  0 -0.1357E-02  0 -0.1542E-02  0  0.1631E-02
   (  5, 38,  1)  (  5, 29, 11)  (  5, 30,  1)  (  5, 26,  9)  (  5, 33,  9)
  0 -0.8879E-03  0 -0.8876E-03  0  0.8201E-03  0 -0.5538E-03  0  0.3977E-03
   (  5, 34,  1)  (  5, 30,  8)  (  5, 35,  8)  (  5, 34,  9)  (  5, 36,  7)
  0 -0.2616E-03  0 -0.2745E-03  0  0.1675E-03  0 -0.2944E-03  0  0.1969E-03
   (  5, 37,  1)  (  5, 31,  5)  (  5, 35,  1)  (  5, 14,  1)  (  5, 13,  1)
  0 -0.1390E-03  0  0.5808E-04  0 -0.6227E-04  0 -0.4859E-04  0  0.5341E-04
   (  5, 13,  1)  (  5, 41,  5)  (  5, 36,  1)  (  5, 29,  5)  (  5, 39,  2)
  1 -0.3046E-04  0  0.2375E-04  0 -0.2627E-04  0  0.2720E-04  0 -0.2980E-04
   (  5, 38,  1)  (  5, 27,  2)  (  5, 34,  3)  (  5, 33,  3)  (  5, 37,  1)
  0  0.2194E-04  0 -0.2113E-04  0  0.1255E-04  0 -0.1705E-04  0  0.8959E-05
   (  5, 38,  4)  (  5, 39,  5)  (  5, 39,  2)  (  5, 40,  1)  (  5, 41,  2)
  0 -0.8799E-05  0 -0.5224E-05  0  0.6037E-05  0 -0.5687E-05  0 -0.4945E-05
   (  5, 39,  2)  (  5, 31,  5)  (  5, 29,  2)  (  5, 40,  1)  (  5, 37,  5)
  0  0.2646E-05  0  0.2731E-05  0 -0.2608E-05  0  0.1931E-05  0  0.1493E-05
   (  5, 34,  1)  (  5, 30,  9)  (  5, 31,  8)  (  5, 34,  9)  (  5, 14,  1)
  0 -0.6587E-06  1  0.6246E-06
   (  5, 31,  2)  (  5, 30,  2)

 MAXIMUM RESIDUAL FOR EACH ITERATION (1 INDICATES THE FIRST INNER ITERATION):

    RESIDUAL       RESIDUAL       RESIDUAL       RESIDUAL       RESIDUAL    
   LAYER,ROW,COL  LAYER,ROW,COL  LAYER,ROW,COL  LAYER,ROW,COL  LAYER,ROW,COL
 ---------------------------------------------------------------------------
  1  0.1047E-03  0  0.8804E-04  0  0.7795E-04  0  0.6983E-04  0  0.5521E-04
   (  3,  3,  1)  (  3,  3,  1)  (  3,  3,  1)  (  3,  3,  1)  (  3,  3,  1)
  0  0.4607E-04  0  0.3794E-04  0  0.2995E-04  0  0.2421E-04  0 -0.1942E-04
   (  3,  3,  1)  (  3,  3,  1)  (  3,  3,  1)  (  3,  3,  1)  (  4, 43,  4)
  0 -0.1534E-04  0 -0.1321E-04  0 -0.1263E-04  0 -0.1023E-04  0 -0.8156E-05
   (  4, 44,  2)  (  4, 44,  2)  (  4, 44,  2)  (  4, 44,  2)  (  4, 44,  2)
  0 -0.7053E-05  0 -0.6053E-05  0 -0.4468E-05  0 -0.3458E-05  0 -0.2447E-05
   (  4, 44,  2)  (  4, 44,  2)  (  4, 44,  2)  (  4, 44,  2)  (  4, 44,  2)
  0  0.1993E-05  0  0.1743E-05  0  0.1629E-05  0  0.1207E-05  0  0.8968E-06
   (  3,  3,  1)  (  3,  3,  1)  (  3,  3,  1)  (  3,  3,  1)  (  3,  3,  1)
  0 -0.6770E-06  0 -0.5206E-06  0 -0.4860E-06  0 -0.4185E-06  0 -0.3438E-06
   (  3,  3,  2)  (  3,  3,  2)  (  3,  3,  2)  (  3,  3,  2)  (  3,  3,  2)
  1 -0.3317E-06  0 -0.3247E-06  0 -0.3097E-06  0 -0.2844E-06  0 -0.2597E-06
   (  3,  3,  2)  (  3,  3,  2)  (  3,  3,  2)  (  3,  3,  2)  (  3,  3,  2)
  0 -0.2032E-06  0 -0.1639E-06  0 -0.1406E-06  0 -0.9908E-07  0  0.7558E-07
   (  3,  3,  2)  (  3,  3,  2)  (  3,  3,  2)  (  3,  3,  2)  (  3,  3,  1)
  0  0.6119E-07  0  0.5649E-07  0  0.4254E-07  0  0.3278E-07  0  0.2404E-07
   (  3,  3,  1)  (  3,  3,  1)  (  3,  3,  1)  (  3,  3,  1)  (  3,  3,  1)
  0  0.2134E-07  0  0.1652E-07  0  0.1315E-07  0  0.9873E-08  0  0.7639E-08
   (  3,  3,  1)  (  3,  3,  1)  (  3,  3,  1)  (  3,  3,  1)  (  3,  3,  1)
  0  0.7153E-08  1  0.7124E-08
   (  3,  3,  1)  (  3,  3,  1)



 OUTPUT CONTROL FOR STRESS PERIOD   77   TIME STEP    1
    SAVE HEAD FOR ALL LAYERS
    SAVE DRAWDOWN FOR ALL LAYERS
    SAVE BUDGET
    PRINT BUDGET
 UBDSV1 SAVING "         STORAGE" ON UNIT   9 AT TIME STEP  1, STRESS PERIOD  77
 UBDSV2 SAVING "   CONSTANT HEAD" ON UNIT   9 AT TIME STEP  1, STRESS PERIOD  77
 UBDSV1 SAVING "FLOW RIGHT FACE " ON UNIT   9 AT TIME STEP  1, STRESS PERIOD  77
 UBDSV1 SAVING "FLOW FRONT FACE " ON UNIT   9 AT TIME STEP  1, STRESS PERIOD  77
 UBDSV1 SAVING "FLOW LOWER FACE " ON UNIT   9 AT TIME STEP  1, STRESS PERIOD  77
 UBDSV3 SAVING "        RECHARGE" ON UNIT   9 AT TIME STEP  1, STRESS PERIOD  77

 HEAD WILL BE SAVED ON UNIT   37 AT END OF TIME STEP    1, STRESS PERIOD   77

 DRAWDOWN WILL BE SAVED ON UNIT   38 AT END OF TIME STEP    1, STRESS PERIOD   77
1
  VOLUMETRIC BUDGET FOR ENTIRE MODEL AT END OF TIME STEP    1, STRESS PERIOD  77
  ------------------------------------------------------------------------------

     CUMULATIVE VOLUMES      L**3       RATES FOR THIS TIME STEP      L**3/T
     ------------------                 ------------------------

           IN:                                      IN:
           ---                                      ---
             STORAGE =       11254.8994               STORAGE =       1.8218E-04
       CONSTANT HEAD =       19966.0508         CONSTANT HEAD =       6.1518E-04
            RECHARGE =         900.0408              RECHARGE =       1.0213E-04

            TOTAL IN =       32120.9902              TOTAL IN =       8.9949E-04

          OUT:                                     OUT:
          ----                                     ----
             STORAGE =        7556.6992               STORAGE =           0.0000
       CONSTANT HEAD =       24565.1973         CONSTANT HEAD =       8.9959E-04
            RECHARGE =           0.0000              RECHARGE =           0.0000

           TOTAL OUT =       32121.8965             TOTAL OUT =       8.9959E-04

            IN - OUT =          -0.9062              IN - OUT =      -9.9884E-08

 PERCENT DISCREPANCY =          -0.00     PERCENT DISCREPANCY =          -0.01






         TIME SUMMARY AT END OF TIME STEP    1 IN STRESS PERIOD   77
                    SECONDS     MINUTES      HOURS       DAYS        YEARS
                    -----------------------------------------------------------
   TIME STEP LENGTH  86400.      1440.0      24.000      1.0000     2.73785E-03
 STRESS PERIOD TIME  86400.      1440.0      24.000      1.0000     2.73785E-03
         TOTAL TIME 8.81280E+06 1.46880E+05  2448.0      102.00     0.27926    
1
1
                            STRESS PERIOD NO.   78, LENGTH =   259200.0    
                            -----------------------------------------------

                              NUMBER OF TIME STEPS =     3

                               MULTIPLIER FOR DELT =     1.000

                            INITIAL TIME STEP SIZE =   86400.00    

 REUSING RECH FROM LAST STRESS PERIOD

 CHD NO.   LAYER   ROW   COL    START HEAD        END HEAD         IFACE           
 ----------------------------------------------------------------------------------
      1      4      3      1       109.8           110.2           0.000    
      2      5      3      1       109.8           110.2           0.000    
      3      4      3      2       109.8           110.2           0.000    
      4      5      3      2       109.8           110.2           0.000    
      5      4      3      3       109.8           110.2           0.000    
      6      5      3      3       109.8           110.2           0.000    
      7      4      3      4       109.8           110.2           0.000    
      8      5      3      4       109.8           110.2           0.000    
      9      4      3      5       109.8           110.2           0.000    
     10      5      3      5       109.8           110.2           0.000    
     11      4      3      6       109.8           110.2           0.000    
     12      5      3      6       109.8           110.2           0.000    
     13      4      3      7       109.8           110.2           0.000    
     14      5      3      7       109.8           110.2           0.000    
     15      4      3      8       109.8           110.2           0.000    
     16      5      3      8       109.8           110.2           0.000    
     17      4      2      8       109.8           110.2           0.000    
     18      5      2      8       109.8           110.2           0.000    
     19      4      2      9       109.8           110.2           0.000    
     20      5      2      9       109.8           110.2           0.000    
     21      4      2     10       109.8           110.2           0.000    
     22      5      2     10       109.8           110.2           0.000    
     23      4      2     11       109.8           110.2           0.000    
     24      5      2     11       109.8           110.2           0.000    
     25      4      2     12       109.8           110.2           0.000    
     26      5      2     12       109.8           110.2           0.000    
     27      4      2     13       109.8           110.2           0.000    
     28      5      2     13       109.8           110.2           0.000    
     29      4      2     14       109.8           110.2           0.000    
     30      5      2     14       109.8           110.2           0.000    
     31      4      2     15       109.8           110.2           0.000    
     32      5      2     15       109.8           110.2           0.000    
     33      4      2     16       109.8           110.2           0.000    
     34      5      2     16       109.8           110.2           0.000    
     35      4      2     17       109.8           110.2           0.000    
     36      5      2     17       109.8           110.2           0.000    
     37      4      2     18       109.8           110.2           0.000    
     38      5      2     18       109.8           110.2           0.000    
     39      4      2     19       109.8           110.2           0.000    
     40      5      2     19       109.8           110.2           0.000    
     41      4      2     20       109.8           110.2           0.000    
     42      5      2     20       109.8           110.2           0.000    
     43      4      2     21       109.8           110.2           0.000    
     44      5      2     21       109.8           110.2           0.000    
     45      4      2     22       109.8           110.2           0.000    
     46      5      2     22       109.8           110.2           0.000    
     47      4      2     23       109.8           110.2           0.000    
     48      5      2     23       109.8           110.2           0.000    
     49      4      2     24       109.8           110.2           0.000    
     50      5      2     24       109.8           110.2           0.000    
     51      4      2     25       109.8           110.2           0.000    
     52      5      2     25       109.8           110.2           0.000    
     53      4      2     26       109.8           110.2           0.000    
     54      5      2     26       109.8           110.2           0.000    
     55      4      1     26       109.8           110.2           0.000    
     56      5      1     26       109.8           110.2           0.000    
     57      4      1     27       109.8           110.2           0.000    
     58      5      1     27       109.8           110.2           0.000    
     59      4      1     28       109.8           110.2           0.000    
     60      5      1     28       109.8           110.2           0.000    
     61      4      1     29       109.8           110.2           0.000    
     62      5      1     29       109.8           110.2           0.000    
     63      4      1     30       109.8           110.2           0.000    
     64      5      1     30       109.8           110.2           0.000    
     65      4      1     31       109.8           110.2           0.000    
     66      5      1     31       109.8           110.2           0.000    
     67      4      1     32       109.8           110.2           0.000    
     68      5      1     32       109.8           110.2           0.000    
     69      4      1     33       109.8           110.2           0.000    
     70      5      1     33       109.8           110.2           0.000    
     71      4      1     34       109.8           110.2           0.000    
     72      5      1     34       109.8           110.2           0.000    
     73      4      1     35       109.8           110.2           0.000    
     74      5      1     35       109.8           110.2           0.000    
     75      4     36     35       109.8           110.5           0.000    
     76      5     36     35       109.8           110.5           0.000    
     77      4     35     34       109.8           110.5           0.000    
     78      5     35     34       109.8           110.5           0.000    
     79      4     36     34       109.8           110.5           0.000    
     80      5     36     34       109.8           110.5           0.000    
     81      4     36     33       109.8           110.5           0.000    
     82      5     36     33       109.8           110.5           0.000    
     83      4     36     32       109.8           110.5           0.000    
     84      5     36     32       109.8           110.5           0.000    
     85      4     37     32       109.8           110.5           0.000    
     86      5     37     32       109.8           110.5           0.000    
     87      4     37     31       109.8           110.5           0.000    
     88      5     37     31       109.8           110.5           0.000    
     89      4     38     31       109.8           110.5           0.000    
     90      5     38     31       109.8           110.5           0.000    
     91      4     38     30       109.8           110.4           0.000    
     92      5     38     30       109.8           110.4           0.000    
     93      4     39     30       109.8           110.4           0.000    
     94      5     39     30       109.8           110.4           0.000    
     95      4     39     29       109.8           110.4           0.000    
     96      5     39     29       109.8           110.4           0.000    
     97      4     40     29       109.8           110.4           0.000    
     98      5     40     29       109.8           110.4           0.000    
     99      4     40     28       109.8           110.4           0.000    
    100      5     40     28       109.8           110.4           0.000    
    101      4     40     27       109.8           110.4           0.000    
    102      5     40     27       109.8           110.4           0.000    
    103      4     41     27       109.8           110.4           0.000    
    104      5     41     27       109.8           110.4           0.000    
    105      4     41     26       109.8           110.4           0.000    
    106      5     41     26       109.8           110.4           0.000    
    107      4     41     25       109.8           110.4           0.000    
    108      5     41     25       109.8           110.4           0.000    
    109      4     41     24       109.8           110.4           0.000    
    110      5     41     24       109.8           110.4           0.000    
    111      4     41     23       109.8           110.4           0.000    
    112      5     41     23       109.8           110.4           0.000    
    113      4     41     22       109.8           110.4           0.000    
    114      5     41     22       109.8           110.4           0.000    
    115      4     42     22       109.8           110.4           0.000    
    116      5     42     22       109.8           110.4           0.000    
    117      4     42     21       109.8           110.4           0.000    
    118      5     42     21       109.8           110.4           0.000    
    119      4     42     20       109.8           110.4           0.000    
    120      5     42     20       109.8           110.4           0.000    
    121      4     42     19       109.8           110.4           0.000    
    122      5     42     19       109.8           110.4           0.000    
    123      4     43     18       109.8           110.4           0.000    
    124      5     43     18       109.8           110.4           0.000    
    125      4     42     18       109.8           110.4           0.000    
    126      5     42     18       109.8           110.4           0.000    
    127      4     42     17       109.8           110.4           0.000    
    128      5     42     17       109.8           110.4           0.000    
    129      4     42     16       109.7           110.4           0.000    
    130      5     42     16       109.7           110.4           0.000    
    131      4     42     15       109.7           110.4           0.000    
    132      5     42     15       109.7           110.4           0.000    
    133      4     43     15       109.7           110.4           0.000    
    134      5     43     15       109.7           110.4           0.000    
    135      4     43     14       109.7           110.4           0.000    
    136      5     43     14       109.7           110.4           0.000    
    137      4     43     13       109.7           110.4           0.000    
    138      5     43     13       109.7           110.4           0.000    
    139      4     43     12       109.7           110.4           0.000    
    140      5     43     12       109.7           110.4           0.000    
    141      4     43     11       109.7           110.4           0.000    
    142      5     43     11       109.7           110.4           0.000    
    143      4     43     10       109.7           110.4           0.000    
    144      5     43     10       109.7           110.4           0.000    
    145      4     44     10       109.7           110.4           0.000    
    146      5     44     10       109.7           110.4           0.000    
    147      4     44      9       109.7           110.4           0.000    
    148      5     44      9       109.7           110.4           0.000    
    149      4     44      8       109.7           110.4           0.000    
    150      5     44      8       109.7           110.4           0.000    
    151      4     44      7       109.7           110.4           0.000    
    152      5     44      7       109.7           110.4           0.000    
    153      4     44      6       109.7           110.4           0.000    
    154      5     44      6       109.7           110.4           0.000    
    155      4     44      5       109.7           110.4           0.000    
    156      5     44      5       109.7           110.4           0.000    
    157      4     44      4       109.7           110.4           0.000    
    158      5     44      4       109.7           110.4           0.000    
    159      4     44      3       109.7           110.4           0.000    
    160      5     44      3       109.7           110.4           0.000    
    161      4     45      3       109.7           110.4           0.000    
    162      5     45      3       109.7           110.4           0.000    
    163      4     45      2       109.7           110.4           0.000    
    164      5     45      2       109.7           110.4           0.000    
    165      4     45      1       109.7           110.4           0.000    
    166      5     45      1       109.7           110.4           0.000    


    166 TIME-VARIANT SPECIFIED-HEAD CELLS

 SOLVING FOR HEAD 


     4 CALLS TO PCG ROUTINE FOR TIME STEP   1 IN STRESS PERIOD   78
    73 TOTAL ITERATIONS

 MAXIMUM HEAD CHANGE FOR EACH ITERATION (1 INDICATES THE FIRST INNER ITERATION):

    HEAD CHANGE    HEAD CHANGE    HEAD CHANGE    HEAD CHANGE    HEAD CHANGE 
   LAYER,ROW,COL  LAYER,ROW,COL  LAYER,ROW,COL  LAYER,ROW,COL  LAYER,ROW,COL
 ---------------------------------------------------------------------------
  1  0.7524      0 -0.4205      0  0.2375      0 -0.2077      0  0.2721    
   (  5, 43,  5)  (  5, 35,  1)  (  5, 30,  2)  (  5, 41,  2)  (  5, 37,  1)
  0  0.1521      0  0.1759      0 -0.1920      0 -0.1102      0 -0.8508E-01
   (  5, 39,  1)  (  5, 40,  1)  (  5, 37,  1)  (  5, 37,  6)  (  5, 40,  1)
  0 -0.7337E-01  0  0.7243E-01  0  0.3605E-01  0 -0.3336E-01  0  0.4209E-01
   (  5, 35,  9)  (  5, 33,  9)  (  5, 30,  1)  (  5, 33,  5)  (  5, 36,  8)
  0 -0.2006E-01  0  0.2039E-01  0  0.1737E-01  0 -0.1344E-01  0 -0.1045E-01
   (  5, 35,  4)  (  5, 34,  1)  (  5, 31,  9)  (  5, 30, 10)  (  5, 36,  7)
  0  0.8645E-02  0 -0.7114E-02  0  0.5529E-02  0 -0.4533E-02  0 -0.5320E-02
   (  5, 37,  1)  (  5, 35,  1)  (  5, 30,  1)  (  5, 33,  4)  (  5, 13,  1)
  0  0.3283E-02  0 -0.2725E-02  0  0.1784E-02  0 -0.1847E-02  0  0.1165E-02
   (  5, 40,  2)  (  5, 37,  1)  (  5, 35,  1)  (  5, 35,  3)  (  5, 36,  1)
  1  0.1098E-02  0 -0.9724E-03  0  0.1620E-02  0 -0.8250E-03  0  0.1025E-02
   (  5, 40,  5)  (  5, 31,  3)  (  5, 34,  3)  (  5, 33,  1)  (  5, 37,  1)
  0  0.6573E-03  0 -0.5726E-03  0  0.5496E-03  0  0.4135E-03  0  0.2884E-03
   (  5, 23,  4)  (  5, 30,  9)  (  5, 35,  1)  (  5, 36,  7)  (  5, 39,  1)
  0 -0.3124E-03  0  0.2078E-03  0 -0.1058E-03  0 -0.2053E-03  0  0.1316E-03
   (  5, 41,  2)  (  5, 33,  6)  (  5, 27,  1)  (  5, 14,  1)  (  5, 13,  1)
  0 -0.8522E-04  0 -0.7132E-04  0  0.4893E-04  0  0.5077E-04  0 -0.3357E-04
   (  5, 29,  9)  (  5, 35,  8)  (  5, 35,  2)  (  5, 38,  8)  (  5, 31,  8)
  0 -0.3090E-04  0 -0.2201E-04  0  0.1342E-04  0 -0.2183E-04  0  0.1464E-04
   (  5, 36,  1)  (  5, 32,  5)  (  5, 34,  4)  (  5, 35,  2)  (  5, 37,  2)
  0 -0.1418E-04  0 -0.1109E-04  0  0.7710E-05  0 -0.7898E-05  0 -0.3778E-05
   (  5, 37,  6)  (  5, 37,  1)  (  5, 40,  1)  (  5, 43,  6)  (  5, 33,  1)
  1  0.3422E-05  0 -0.6235E-05  0  0.3735E-05  0 -0.5146E-05  0 -0.4982E-05
   (  5, 35,  2)  (  5, 34,  3)  (  5, 30,  3)  (  5, 39,  1)  (  5, 36,  6)
  0  0.4034E-05  0  0.2314E-05  0 -0.2095E-05  0 -0.1585E-05  0  0.1362E-05
   (  5, 37,  6)  (  5, 27,  7)  (  5, 38,  6)  (  5, 30, 10)  (  5, 39,  7)
  0  0.1309E-05  0  0.6184E-06  1 -0.6124E-06
   (  5, 39,  1)  (  5, 33,  3)  (  5, 30,  2)

 MAXIMUM RESIDUAL FOR EACH ITERATION (1 INDICATES THE FIRST INNER ITERATION):

    RESIDUAL       RESIDUAL       RESIDUAL       RESIDUAL       RESIDUAL    
   LAYER,ROW,COL  LAYER,ROW,COL  LAYER,ROW,COL  LAYER,ROW,COL  LAYER,ROW,COL
 ---------------------------------------------------------------------------
  1 -0.3239E-02  0 -0.2403E-02  0 -0.2058E-02  0 -0.1850E-02  0 -0.1544E-02
   (  4, 44,  2)  (  4, 44,  2)  (  4, 35, 35)  (  4, 35, 35)  (  4, 35, 35)
  0 -0.1301E-02  0 -0.1091E-02  0 -0.8598E-03  0 -0.6794E-03  0  0.5613E-03
   (  3, 40, 27)  (  3, 40, 27)  (  3, 40, 27)  (  3, 40, 27)  (  4, 43,  4)
  0  0.4544E-03  0  0.3587E-03  0  0.3121E-03  0  0.2722E-03  0  0.2097E-03
   (  4, 43,  4)  (  4, 43,  4)  (  4, 43,  4)  (  4, 43,  4)  (  4, 44,  2)
  0  0.1908E-03  0  0.1699E-03  0  0.1341E-03  0  0.1081E-03  0  0.8134E-04
   (  4, 44,  2)  (  4, 44,  2)  (  4, 44,  2)  (  4, 44,  2)  (  4, 44,  2)
  0  0.6539E-04  0  0.5792E-04  0  0.5029E-04  0  0.4501E-04  0  0.3591E-04
   (  4, 34, 35)  (  4, 34, 35)  (  4, 34, 35)  (  4, 34, 35)  (  4, 34, 35)
  0  0.2861E-04  0  0.2577E-04  0  0.2304E-04  0  0.1856E-04  0  0.1291E-04
   (  4, 34, 35)  (  4, 34, 35)  (  4, 34, 35)  (  4, 34, 35)  (  4, 34, 35)
  1  0.1172E-04  0  0.1095E-04  0  0.8600E-05  0  0.7764E-05  0  0.6420E-05
   (  4, 34, 35)  (  4, 34, 35)  (  4, 34, 35)  (  4, 34, 35)  (  4, 34, 35)
  0  0.5283E-05  0  0.4559E-05  0  0.3957E-05  0  0.3464E-05  0  0.2892E-05
   (  4, 34, 35)  (  4, 34, 35)  (  4, 34, 35)  (  4, 34, 35)  (  4, 34, 35)
  0  0.2349E-05  0  0.2003E-05  0  0.1875E-05  0  0.1431E-05  0  0.1002E-05
   (  4, 34, 35)  (  4, 34, 35)  (  4, 34, 35)  (  4, 34, 35)  (  4, 34, 35)
  0 -0.7020E-06  0 -0.5439E-06  0 -0.5069E-06  0 -0.3905E-06  0 -0.3080E-06
   (  4, 35, 35)  (  4, 35, 35)  (  4, 35, 35)  (  4, 35, 35)  (  4, 35, 35)
  0 -0.2477E-06  0 -0.2262E-06  0 -0.2102E-06  0 -0.1691E-06  0 -0.1298E-06
   (  4, 35, 35)  (  4, 35, 35)  (  4, 35, 35)  (  4, 35, 35)  (  4, 35, 35)
  0 -0.9836E-07  0 -0.7466E-07  0 -0.6001E-07  0 -0.4080E-07  0 -0.3816E-07
   (  4, 35, 35)  (  4, 35, 35)  (  4, 35, 35)  (  3, 36, 32)  (  3, 36, 32)
  1 -0.3790E-07  0 -0.3453E-07  0 -0.3310E-07  0 -0.2792E-07  0 -0.2144E-07
   (  3, 36, 32)  (  3, 36, 32)  (  3, 36, 32)  (  3, 36, 32)  (  3, 36, 32)
  0 -0.1658E-07  0 -0.1500E-07  0 -0.1291E-07  0 -0.1135E-07  0 -0.9749E-08
   (  3, 36, 35)  (  3, 36, 35)  (  4, 35, 35)  (  4, 35, 35)  (  4, 35, 35)
  0 -0.8163E-08  0 -0.7653E-08  1 -0.7628E-08
   (  4, 35, 35)  (  4, 35, 35)  (  4, 35, 35)



 OUTPUT CONTROL FOR STRESS PERIOD   78   TIME STEP    1
    SAVE HEAD FOR ALL LAYERS
    SAVE DRAWDOWN FOR ALL LAYERS
    SAVE BUDGET
    PRINT BUDGET
 UBDSV1 SAVING "         STORAGE" ON UNIT   9 AT TIME STEP  1, STRESS PERIOD  78
 UBDSV2 SAVING "   CONSTANT HEAD" ON UNIT   9 AT TIME STEP  1, STRESS PERIOD  78
 UBDSV1 SAVING "FLOW RIGHT FACE " ON UNIT   9 AT TIME STEP  1, STRESS PERIOD  78
 UBDSV1 SAVING "FLOW FRONT FACE " ON UNIT   9 AT TIME STEP  1, STRESS PERIOD  78
 UBDSV1 SAVING "FLOW LOWER FACE " ON UNIT   9 AT TIME STEP  1, STRESS PERIOD  78
 UBDSV3 SAVING "        RECHARGE" ON UNIT   9 AT TIME STEP  1, STRESS PERIOD  78

 HEAD WILL BE SAVED ON UNIT   37 AT END OF TIME STEP    1, STRESS PERIOD   78

 DRAWDOWN WILL BE SAVED ON UNIT   38 AT END OF TIME STEP    1, STRESS PERIOD   78
1
  VOLUMETRIC BUDGET FOR ENTIRE MODEL AT END OF TIME STEP    1, STRESS PERIOD  78
  ------------------------------------------------------------------------------

     CUMULATIVE VOLUMES      L**3       RATES FOR THIS TIME STEP      L**3/T
     ------------------                 ------------------------

           IN:                                      IN:
           ---                                      ---
             STORAGE =       11254.8994               STORAGE =           0.0000
       CONSTANT HEAD =       20450.0996         CONSTANT HEAD =       5.6024E-03
            RECHARGE =         908.8647              RECHARGE =       1.0213E-04

            TOTAL IN =       32613.8652              TOTAL IN =       5.7046E-03

          OUT:                                     OUT:
          ----                                     ----
             STORAGE =        8049.5737               STORAGE =       5.7046E-03
       CONSTANT HEAD =       24565.1973         CONSTANT HEAD =           0.0000
            RECHARGE =           0.0000              RECHARGE =           0.0000

           TOTAL OUT =       32614.7715             TOTAL OUT =       5.7046E-03

            IN - OUT =          -0.9062              IN - OUT =      -9.3132E-09

 PERCENT DISCREPANCY =          -0.00     PERCENT DISCREPANCY =          -0.00






         TIME SUMMARY AT END OF TIME STEP    1 IN STRESS PERIOD   78
                    SECONDS     MINUTES      HOURS       DAYS        YEARS
                    -----------------------------------------------------------
   TIME STEP LENGTH  86400.      1440.0      24.000      1.0000     2.73785E-03
 STRESS PERIOD TIME  86400.      1440.0      24.000      1.0000     2.73785E-03
         TOTAL TIME 8.89920E+06 1.48320E+05  2472.0      103.00     0.28200    
1

 SOLVING FOR HEAD 
     4 CALLS TO PCG ROUTINE FOR TIME STEP   2 IN STRESS PERIOD   78
    74 TOTAL ITERATIONS

 MAXIMUM HEAD CHANGE FOR EACH ITERATION (1 INDICATES THE FIRST INNER ITERATION):

    HEAD CHANGE    HEAD CHANGE    HEAD CHANGE    HEAD CHANGE    HEAD CHANGE 
   LAYER,ROW,COL  LAYER,ROW,COL  LAYER,ROW,COL  LAYER,ROW,COL  LAYER,ROW,COL
 ---------------------------------------------------------------------------
  1  0.7743      0 -0.4167      0  0.2370      0 -0.2131      0  0.2603    
   (  5, 43,  5)  (  5, 35,  1)  (  5, 30,  2)  (  5, 41,  2)  (  5, 37,  1)
  0  0.1615      0  0.1771      0 -0.1916      0 -0.1098      0 -0.8642E-01
   (  5, 39,  1)  (  5, 40,  1)  (  5, 37,  1)  (  5, 37,  6)  (  5, 40,  1)
  0 -0.7994E-01  0  0.7932E-01  0 -0.2748E-01  0 -0.4322E-01  0  0.3666E-01
   (  5, 35,  9)  (  5, 32,  9)  (  5, 31,  4)  (  5, 30,  9)  (  5, 36,  8)
  0 -0.1866E-01  0  0.2125E-01  0 -0.1645E-01  0  0.1271E-01  0 -0.1173E-01
   (  5, 35,  4)  (  5, 34,  1)  (  5, 15,  1)  (  5, 36,  1)  (  5, 38,  4)
  0  0.1069E-01  0  0.7495E-02  0 -0.6192E-02  0  0.7168E-02  0 -0.5492E-02
   (  5, 37,  1)  (  5, 33,  7)  (  5, 32,  3)  (  5, 13,  1)  (  5, 13,  1)
  0 -0.3814E-02  0  0.2158E-02  0  0.1933E-02  0 -0.2101E-02  0  0.1467E-02
   (  5, 37,  1)  (  5, 40,  2)  (  5, 35,  1)  (  5, 38,  1)  (  5, 36,  1)
  1 -0.7440E-03  0  0.1610E-02  0 -0.1928E-02  0  0.9476E-03  0  0.8690E-03
   (  5, 28,  1)  (  5, 40,  5)  (  5, 38,  4)  (  5, 35,  3)  (  5, 31,  7)
  0 -0.8882E-03  0  0.6564E-03  0 -0.6154E-03  0  0.2953E-03  0  0.3174E-03
   (  5, 31,  9)  (  5, 39,  1)  (  5, 37,  1)  (  5, 26,  8)  (  5, 39,  1)
  0 -0.2672E-03  0 -0.1474E-03  0  0.2532E-03  0 -0.1614E-03  0 -0.9334E-04
   (  5, 41,  2)  (  5, 28,  2)  (  5, 33,  6)  (  5, 14,  1)  (  5, 32,  4)
  0 -0.9110E-04  0 -0.7229E-04  0  0.7372E-04  0  0.7784E-04  0 -0.4512E-04
   (  5, 30,  5)  (  5, 33,  1)  (  5, 36,  2)  (  5, 37,  8)  (  5, 37,  6)
  0  0.4571E-04  0 -0.1709E-04  0  0.4091E-04  0 -0.1935E-04  0  0.2620E-04
   (  5, 39,  5)  (  5, 30,  2)  (  5, 39,  1)  (  5, 39,  4)  (  5, 37,  2)
  0 -0.1596E-04  0  0.9604E-05  0 -0.7800E-05  0  0.8902E-05  0  0.5614E-05
   (  5, 13,  1)  (  5, 13,  1)  (  5, 36,  2)  (  5, 37,  6)  (  5, 38,  2)
  1 -0.5718E-05  0 -0.8605E-05  0  0.6861E-05  0 -0.7205E-05  0  0.5474E-05
   (  5, 39,  1)  (  5, 36,  6)  (  5, 35,  2)  (  5, 31,  2)  (  5, 25,  1)
  0  0.4551E-05  0  0.2754E-05  0 -0.2843E-05  0 -0.1843E-05  0  0.2034E-05
   (  5, 15,  1)  (  5, 27,  7)  (  5, 35,  1)  (  5, 29,  9)  (  5, 32, 11)
  0  0.1949E-05  0 -0.1763E-05  0  0.7813E-06  1 -0.6098E-06
   (  5, 42,  2)  (  5, 40,  1)  (  5, 29,  1)  (  5, 28,  1)

 MAXIMUM RESIDUAL FOR EACH ITERATION (1 INDICATES THE FIRST INNER ITERATION):

    RESIDUAL       RESIDUAL       RESIDUAL       RESIDUAL       RESIDUAL    
   LAYER,ROW,COL  LAYER,ROW,COL  LAYER,ROW,COL  LAYER,ROW,COL  LAYER,ROW,COL
 ---------------------------------------------------------------------------
  1 -0.3154E-02  0 -0.2331E-02  0 -0.2101E-02  0 -0.1892E-02  0 -0.1591E-02
   (  4, 44,  2)  (  4, 44,  2)  (  4, 35, 35)  (  4, 35, 35)  (  4, 35, 35)
  0 -0.1325E-02  0 -0.1092E-02  0 -0.8554E-03  0 -0.6709E-03  0  0.5609E-03
   (  4, 35, 35)  (  3, 40, 27)  (  3, 40, 27)  (  3, 40, 27)  (  4, 43,  4)
  0  0.4559E-03  0  0.3723E-03  0  0.3546E-03  0  0.2829E-03  0  0.2180E-03
   (  4, 43,  4)  (  4, 43,  4)  (  4, 43,  4)  (  4, 43,  4)  (  4, 43,  4)
  0  0.1993E-03  0  0.1723E-03  0  0.1367E-03  0  0.1109E-03  0  0.9593E-04
   (  4, 44,  2)  (  4, 44,  2)  (  4, 44,  2)  (  4, 44,  2)  (  4, 44,  2)
  0  0.7749E-04  0  0.6254E-04  0  0.5775E-04  0  0.4558E-04  0  0.3601E-04
   (  4, 44,  2)  (  4, 34, 35)  (  4, 34, 35)  (  4, 34, 35)  (  4, 34, 35)
  0  0.2874E-04  0  0.2562E-04  0  0.2307E-04  0  0.1824E-04  0  0.1286E-04
   (  4, 34, 35)  (  4, 34, 35)  (  4, 34, 35)  (  4, 34, 35)  (  4, 34, 35)
  1  0.1277E-04  0  0.1095E-04  0  0.7811E-05  0  0.7302E-05  0  0.5921E-05
   (  4, 34, 35)  (  4, 34, 35)  (  4, 34, 35)  (  4, 34, 35)  (  4, 34, 35)
  0  0.5291E-05  0  0.4775E-05  0  0.4400E-05  0  0.4091E-05  0  0.3493E-05
   (  4, 34, 35)  (  4, 34, 35)  (  4, 34, 35)  (  4, 34, 35)  (  4, 34, 35)
  0  0.2954E-05  0  0.2797E-05  0  0.2231E-05  0  0.1636E-05  0  0.1110E-05
   (  4, 34, 35)  (  4, 34, 35)  (  4, 34, 35)  (  4, 34, 35)  (  4, 34, 35)
  0 -0.7728E-06  0 -0.6993E-06  0 -0.5659E-06  0 -0.4441E-06  0 -0.3674E-06
   (  4, 35, 35)  (  4, 35, 35)  (  4, 35, 35)  (  4, 35, 35)  (  4, 35, 35)
  0 -0.2992E-06  0 -0.2878E-06  0 -0.2214E-06  0 -0.1898E-06  0 -0.1514E-06
   (  4, 35, 35)  (  4, 35, 35)  (  4, 35, 35)  (  4, 35, 35)  (  4, 35, 35)
  0 -0.1075E-06  0 -0.7773E-07  0 -0.6994E-07  0 -0.5397E-07  0 -0.4818E-07
   (  4, 35, 35)  (  3, 36, 32)  (  3, 36, 32)  (  3, 36, 32)  (  3, 36, 32)
  1 -0.4640E-07  0 -0.3873E-07  0 -0.3559E-07  0 -0.2962E-07  0 -0.2572E-07
   (  3, 36, 32)  (  3, 36, 32)  (  3, 36, 32)  (  3, 36, 32)  (  3, 36, 32)
  0 -0.1967E-07  0 -0.1802E-07  0 -0.1553E-07  0 -0.1431E-07  0 -0.1271E-07
   (  3, 36, 32)  (  3, 36, 32)  (  4, 35, 35)  (  4, 35, 35)  (  4, 35, 35)
  0 -0.1084E-07  0 -0.9063E-08  0 -0.8451E-08  1 -0.8415E-08
   (  4, 35, 35)  (  4, 35, 35)  (  4, 35, 35)  (  4, 35, 35)



 OUTPUT CONTROL FOR STRESS PERIOD   78   TIME STEP    2
    SAVE HEAD FOR ALL LAYERS
    SAVE DRAWDOWN FOR ALL LAYERS
    SAVE BUDGET
    PRINT BUDGET
 UBDSV1 SAVING "         STORAGE" ON UNIT   9 AT TIME STEP  2, STRESS PERIOD  78
 UBDSV2 SAVING "   CONSTANT HEAD" ON UNIT   9 AT TIME STEP  2, STRESS PERIOD  78
 UBDSV1 SAVING "FLOW RIGHT FACE " ON UNIT   9 AT TIME STEP  2, STRESS PERIOD  78
 UBDSV1 SAVING "FLOW FRONT FACE " ON UNIT   9 AT TIME STEP  2, STRESS PERIOD  78
 UBDSV1 SAVING "FLOW LOWER FACE " ON UNIT   9 AT TIME STEP  2, STRESS PERIOD  78
 UBDSV3 SAVING "        RECHARGE" ON UNIT   9 AT TIME STEP  2, STRESS PERIOD  78

 HEAD WILL BE SAVED ON UNIT   37 AT END OF TIME STEP    2, STRESS PERIOD   78

 DRAWDOWN WILL BE SAVED ON UNIT   38 AT END OF TIME STEP    2, STRESS PERIOD   78
1
  VOLUMETRIC BUDGET FOR ENTIRE MODEL AT END OF TIME STEP    2, STRESS PERIOD  78
  ------------------------------------------------------------------------------

     CUMULATIVE VOLUMES      L**3       RATES FOR THIS TIME STEP      L**3/T
     ------------------                 ------------------------

           IN:                                      IN:
           ---                                      ---
             STORAGE =       11254.8994               STORAGE =           0.0000
       CONSTANT HEAD =       21067.6914         CONSTANT HEAD =       7.1480E-03
            RECHARGE =         917.6887              RECHARGE =       1.0213E-04

            TOTAL IN =       33240.2773              TOTAL IN =       7.2502E-03

          OUT:                                     OUT:
          ----                                     ----
             STORAGE =        8675.9893               STORAGE =       7.2502E-03
       CONSTANT HEAD =       24565.1973         CONSTANT HEAD =           0.0000
            RECHARGE =           0.0000              RECHARGE =           0.0000

           TOTAL OUT =       33241.1875             TOTAL OUT =       7.2502E-03

            IN - OUT =          -0.9102              IN - OUT =      -3.2596E-09

 PERCENT DISCREPANCY =          -0.00     PERCENT DISCREPANCY =          -0.00






         TIME SUMMARY AT END OF TIME STEP    2 IN STRESS PERIOD   78
                    SECONDS     MINUTES      HOURS       DAYS        YEARS
                    -----------------------------------------------------------
   TIME STEP LENGTH  86400.      1440.0      24.000      1.0000     2.73785E-03
 STRESS PERIOD TIME 1.72800E+05  2880.0      48.000      2.0000     5.47570E-03
         TOTAL TIME 8.98560E+06 1.49760E+05  2496.0      104.00     0.28474    
1

 SOLVING FOR HEAD 
     4 CALLS TO PCG ROUTINE FOR TIME STEP   3 IN STRESS PERIOD   78
    74 TOTAL ITERATIONS

 MAXIMUM HEAD CHANGE FOR EACH ITERATION (1 INDICATES THE FIRST INNER ITERATION):

    HEAD CHANGE    HEAD CHANGE    HEAD CHANGE    HEAD CHANGE    HEAD CHANGE 
   LAYER,ROW,COL  LAYER,ROW,COL  LAYER,ROW,COL  LAYER,ROW,COL  LAYER,ROW,COL
 ---------------------------------------------------------------------------
  1  0.7798      0 -0.4140      0 -0.2377      0 -0.2145      0  0.2548    
   (  5, 43,  5)  (  5, 35,  1)  (  5, 40,  2)  (  5, 41,  2)  (  5, 37,  1)
  0  0.1674      0  0.1773      0 -0.1899      0 -0.1094      0 -0.8598E-01
   (  5, 39,  1)  (  5, 40,  1)  (  5, 37,  1)  (  5, 37,  6)  (  5, 40,  1)
  0 -0.8174E-01  0  0.8132E-01  0 -0.2750E-01  0 -0.4385E-01  0  0.3466E-01
   (  5, 35,  9)  (  5, 32,  9)  (  5, 31,  4)  (  5, 30,  9)  (  5, 36,  9)
  0  0.2373E-01  0 -0.1887E-01  0 -0.1688E-01  0 -0.1251E-01  0 -0.1198E-01
   (  5, 34,  1)  (  5, 35,  4)  (  5, 15,  1)  (  5, 39,  1)  (  5, 36,  7)
  0 -0.8119E-02  0 -0.8882E-02  0  0.3857E-02  0  0.7212E-02  0 -0.5548E-02
   (  5, 38,  4)  (  5, 32,  4)  (  5, 29,  1)  (  5, 13,  1)  (  5, 13,  1)
  0 -0.3965E-02  0  0.2358E-02  0  0.1819E-02  0 -0.2100E-02  0  0.1438E-02
   (  5, 37,  1)  (  5, 40,  2)  (  5, 35,  1)  (  5, 38,  1)  (  5, 41,  2)
  1 -0.1694E-02  0  0.1437E-02  0  0.2091E-02  0 -0.1098E-02  0  0.1152E-02
   (  5, 33,  1)  (  5, 30,  2)  (  5, 41,  1)  (  5, 35,  1)  (  5, 37,  3)
  0  0.5730E-03  0 -0.8091E-03  0  0.4813E-03  0 -0.3317E-03  0  0.3221E-03
   (  5, 23,  3)  (  5, 30,  9)  (  5, 32,  8)  (  5, 37,  1)  (  5, 39,  2)
  0 -0.3132E-03  0 -0.2078E-03  0  0.2213E-03  0 -0.1450E-03  0 -0.1061E-03
   (  5, 37,  1)  (  5, 27,  2)  (  5, 33,  6)  (  5, 32,  8)  (  5, 32,  4)
  0 -0.1034E-03  0 -0.7906E-04  0  0.7779E-04  0  0.8456E-04  0 -0.5121E-04
   (  5, 26, 12)  (  5, 33,  1)  (  5, 36,  2)  (  5, 38,  8)  (  5, 37,  6)
  0  0.2541E-04  0 -0.3056E-04  0  0.3019E-04  0 -0.2549E-04  0  0.2137E-04
   (  5, 28,  1)  (  5, 42,  1)  (  5, 38,  1)  (  5, 35,  1)  (  5, 36,  1)
  0  0.1319E-04  0 -0.1023E-04  0 -0.9253E-05  0  0.8665E-05  0 -0.3264E-05
   (  5, 42,  6)  (  5, 38,  1)  (  5, 33,  1)  (  5, 37,  6)  (  5, 27,  1)
  1  0.4051E-05  0 -0.8089E-05  0  0.6187E-05  0  0.6836E-05  0  0.4918E-05
   (  5, 29,  2)  (  5, 36,  4)  (  5, 35,  2)  (  5, 13,  1)  (  5, 18,  1)
  0 -0.3025E-05  0  0.3380E-05  0  0.2203E-05  0  0.2228E-05  0  0.2401E-05
   (  5, 37,  2)  (  5, 28,  7)  (  5, 36,  7)  (  5, 37,  2)  (  5, 32, 11)
  0  0.1966E-05  0 -0.1496E-05  0 -0.6938E-06  1  0.7303E-06
   (  5, 39,  1)  (  5, 40,  1)  (  5, 27,  2)  (  5, 31,  3)

 MAXIMUM RESIDUAL FOR EACH ITERATION (1 INDICATES THE FIRST INNER ITERATION):

    RESIDUAL       RESIDUAL       RESIDUAL       RESIDUAL       RESIDUAL    
   LAYER,ROW,COL  LAYER,ROW,COL  LAYER,ROW,COL  LAYER,ROW,COL  LAYER,ROW,COL
 ---------------------------------------------------------------------------
  1 -0.3133E-02  0 -0.2317E-02  0 -0.2119E-02  0 -0.1910E-02  0 -0.1610E-02
   (  4, 44,  2)  (  4, 44,  2)  (  4, 35, 35)  (  4, 35, 35)  (  4, 35, 35)
  0 -0.1337E-02  0 -0.1094E-02  0 -0.8563E-03  0 -0.6708E-03  0  0.5619E-03
   (  4, 35, 35)  (  3, 40, 27)  (  3, 40, 27)  (  3, 40, 27)  (  4, 43,  4)
  0  0.4578E-03  0  0.3759E-03  0  0.3585E-03  0  0.2870E-03  0  0.2212E-03
   (  4, 43,  4)  (  4, 43,  4)  (  4, 43,  4)  (  4, 43,  4)  (  4, 43,  4)
  0  0.1897E-03  0  0.1733E-03  0  0.1382E-03  0  0.1118E-03  0  0.8722E-04
   (  4, 44,  2)  (  4, 44,  2)  (  4, 44,  2)  (  4, 44,  2)  (  4, 44,  2)
  0  0.7760E-04  0  0.6062E-04  0  0.5825E-04  0  0.4620E-04  0  0.3652E-04
   (  4, 44,  2)  (  4, 34, 35)  (  4, 34, 35)  (  4, 34, 35)  (  4, 34, 35)
  0  0.2967E-04  0  0.2603E-04  0  0.2397E-04  0  0.1839E-04  0  0.1269E-04
   (  4, 34, 35)  (  4, 34, 35)  (  4, 34, 35)  (  4, 34, 35)  (  4, 34, 35)
  1  0.1145E-04  0  0.1088E-04  0  0.7935E-05  0  0.7122E-05  0  0.6345E-05
   (  4, 34, 35)  (  4, 34, 35)  (  4, 34, 35)  (  4, 34, 35)  (  4, 34, 35)
  0  0.5959E-05  0  0.5469E-05  0  0.4915E-05  0  0.4411E-05  0  0.3938E-05
   (  4, 34, 35)  (  4, 34, 35)  (  4, 34, 35)  (  4, 34, 35)  (  4, 34, 35)
  0  0.3282E-05  0  0.2878E-05  0  0.2497E-05  0  0.1828E-05  0  0.1220E-05
   (  4, 34, 35)  (  4, 34, 35)  (  4, 34, 35)  (  4, 34, 35)  (  4, 34, 35)
  0 -0.8463E-06  0 -0.7456E-06  0 -0.6146E-06  0 -0.4835E-06  0 -0.4047E-06
   (  4, 35, 35)  (  4, 35, 35)  (  4, 35, 35)  (  4, 35, 35)  (  4, 35, 35)
  0 -0.3818E-06  0 -0.3189E-06  0 -0.2803E-06  0 -0.2233E-06  0 -0.1592E-06
   (  4, 35, 35)  (  4, 35, 35)  (  4, 35, 35)  (  4, 35, 35)  (  4, 35, 35)
  0 -0.1194E-06  0 -0.9232E-07  0 -0.7929E-07  0 -0.6282E-07  0 -0.6048E-07
   (  3, 36, 32)  (  3, 36, 32)  (  3, 36, 32)  (  3, 36, 32)  (  3, 36, 32)
  1 -0.5980E-07  0 -0.5360E-07  0 -0.5052E-07  0 -0.3632E-07  0 -0.2931E-07
   (  3, 36, 32)  (  3, 36, 32)  (  3, 36, 32)  (  3, 36, 32)  (  3, 36, 32)
  0 -0.2608E-07  0 -0.2296E-07  0 -0.2029E-07  0 -0.1809E-07  0 -0.1567E-07
   (  3, 36, 32)  (  3, 36, 32)  (  3, 36, 32)  (  3, 36, 32)  (  3, 36, 32)
  0 -0.1347E-07  0 -0.1112E-07  0 -0.1043E-07  1 -0.1039E-07
   (  4, 35, 35)  (  4, 35, 35)  (  4, 35, 35)  (  4, 35, 35)



 OUTPUT CONTROL FOR STRESS PERIOD   78   TIME STEP    3
    SAVE HEAD FOR ALL LAYERS
    SAVE DRAWDOWN FOR ALL LAYERS
    SAVE BUDGET
    PRINT BUDGET
 UBDSV1 SAVING "         STORAGE" ON UNIT   9 AT TIME STEP  3, STRESS PERIOD  78
 UBDSV2 SAVING "   CONSTANT HEAD" ON UNIT   9 AT TIME STEP  3, STRESS PERIOD  78
 UBDSV1 SAVING "FLOW RIGHT FACE " ON UNIT   9 AT TIME STEP  3, STRESS PERIOD  78
 UBDSV1 SAVING "FLOW FRONT FACE " ON UNIT   9 AT TIME STEP  3, STRESS PERIOD  78
 UBDSV1 SAVING "FLOW LOWER FACE " ON UNIT   9 AT TIME STEP  3, STRESS PERIOD  78
 UBDSV3 SAVING "        RECHARGE" ON UNIT   9 AT TIME STEP  3, STRESS PERIOD  78

 HEAD WILL BE SAVED ON UNIT   37 AT END OF TIME STEP    3, STRESS PERIOD   78

 DRAWDOWN WILL BE SAVED ON UNIT   38 AT END OF TIME STEP    3, STRESS PERIOD   78
1
  VOLUMETRIC BUDGET FOR ENTIRE MODEL AT END OF TIME STEP    3, STRESS PERIOD  78
  ------------------------------------------------------------------------------

     CUMULATIVE VOLUMES      L**3       RATES FOR THIS TIME STEP      L**3/T
     ------------------                 ------------------------

           IN:                                      IN:
           ---                                      ---
             STORAGE =       11254.8994               STORAGE =           0.0000
       CONSTANT HEAD =       21726.5781         CONSTANT HEAD =       7.6260E-03
            RECHARGE =         926.5126              RECHARGE =       1.0213E-04

            TOTAL IN =       33907.9883              TOTAL IN =       7.7281E-03

          OUT:                                     OUT:
          ----                                     ----
             STORAGE =        9343.6982               STORAGE =       7.7281E-03
       CONSTANT HEAD =       24565.1973         CONSTANT HEAD =           0.0000
            RECHARGE =           0.0000              RECHARGE =           0.0000

           TOTAL OUT =       33908.8945             TOTAL OUT =       7.7281E-03

            IN - OUT =          -0.9062              IN - OUT =       2.8405E-08

 PERCENT DISCREPANCY =          -0.00     PERCENT DISCREPANCY =           0.00






         TIME SUMMARY AT END OF TIME STEP    3 IN STRESS PERIOD   78
                    SECONDS     MINUTES      HOURS       DAYS        YEARS
                    -----------------------------------------------------------
   TIME STEP LENGTH  86400.      1440.0      24.000      1.0000     2.73785E-03
 STRESS PERIOD TIME 2.59200E+05  4320.0      72.000      3.0000     8.21355E-03
         TOTAL TIME 9.07200E+06 1.51200E+05  2520.0      105.00     0.28747    
1
1
                            STRESS PERIOD NO.   79, LENGTH =   86400.00    
                            -----------------------------------------------

                              NUMBER OF TIME STEPS =     1

                               MULTIPLIER FOR DELT =     1.000

                            INITIAL TIME STEP SIZE =   86400.00    

 REUSING RECH FROM LAST STRESS PERIOD

 CHD NO.   LAYER   ROW   COL    START HEAD        END HEAD         IFACE           
 ----------------------------------------------------------------------------------
      1      4      3      1       110.2           110.3           0.000    
      2      5      3      1       110.2           110.3           0.000    
      3      4      3      2       110.2           110.3           0.000    
      4      5      3      2       110.2           110.3           0.000    
      5      4      3      3       110.2           110.3           0.000    
      6      5      3      3       110.2           110.3           0.000    
      7      4      3      4       110.2           110.3           0.000    
      8      5      3      4       110.2           110.3           0.000    
      9      4      3      5       110.2           110.3           0.000    
     10      5      3      5       110.2           110.3           0.000    
     11      4      3      6       110.2           110.3           0.000    
     12      5      3      6       110.2           110.3           0.000    
     13      4      3      7       110.2           110.3           0.000    
     14      5      3      7       110.2           110.3           0.000    
     15      4      3      8       110.2           110.3           0.000    
     16      5      3      8       110.2           110.3           0.000    
     17      4      2      8       110.2           110.3           0.000    
     18      5      2      8       110.2           110.3           0.000    
     19      4      2      9       110.2           110.3           0.000    
     20      5      2      9       110.2           110.3           0.000    
     21      4      2     10       110.2           110.3           0.000    
     22      5      2     10       110.2           110.3           0.000    
     23      4      2     11       110.2           110.3           0.000    
     24      5      2     11       110.2           110.3           0.000    
     25      4      2     12       110.2           110.3           0.000    
     26      5      2     12       110.2           110.3           0.000    
     27      4      2     13       110.2           110.3           0.000    
     28      5      2     13       110.2           110.3           0.000    
     29      4      2     14       110.2           110.3           0.000    
     30      5      2     14       110.2           110.3           0.000    
     31      4      2     15       110.2           110.3           0.000    
     32      5      2     15       110.2           110.3           0.000    
     33      4      2     16       110.2           110.3           0.000    
     34      5      2     16       110.2           110.3           0.000    
     35      4      2     17       110.2           110.3           0.000    
     36      5      2     17       110.2           110.3           0.000    
     37      4      2     18       110.2           110.3           0.000    
     38      5      2     18       110.2           110.3           0.000    
     39      4      2     19       110.2           110.3           0.000    
     40      5      2     19       110.2           110.3           0.000    
     41      4      2     20       110.2           110.3           0.000    
     42      5      2     20       110.2           110.3           0.000    
     43      4      2     21       110.2           110.3           0.000    
     44      5      2     21       110.2           110.3           0.000    
     45      4      2     22       110.2           110.3           0.000    
     46      5      2     22       110.2           110.3           0.000    
     47      4      2     23       110.2           110.3           0.000    
     48      5      2     23       110.2           110.3           0.000    
     49      4      2     24       110.2           110.3           0.000    
     50      5      2     24       110.2           110.3           0.000    
     51      4      2     25       110.2           110.3           0.000    
     52      5      2     25       110.2           110.3           0.000    
     53      4      2     26       110.2           110.3           0.000    
     54      5      2     26       110.2           110.3           0.000    
     55      4      1     26       110.2           110.3           0.000    
     56      5      1     26       110.2           110.3           0.000    
     57      4      1     27       110.2           110.3           0.000    
     58      5      1     27       110.2           110.3           0.000    
     59      4      1     28       110.2           110.3           0.000    
     60      5      1     28       110.2           110.3           0.000    
     61      4      1     29       110.2           110.3           0.000    
     62      5      1     29       110.2           110.3           0.000    
     63      4      1     30       110.2           110.3           0.000    
     64      5      1     30       110.2           110.3           0.000    
     65      4      1     31       110.2           110.3           0.000    
     66      5      1     31       110.2           110.3           0.000    
     67      4      1     32       110.2           110.3           0.000    
     68      5      1     32       110.2           110.3           0.000    
     69      4      1     33       110.2           110.3           0.000    
     70      5      1     33       110.2           110.3           0.000    
     71      4      1     34       110.2           110.3           0.000    
     72      5      1     34       110.2           110.3           0.000    
     73      4      1     35       110.2           110.3           0.000    
     74      5      1     35       110.2           110.3           0.000    
     75      4     36     35       110.5           110.6           0.000    
     76      5     36     35       110.5           110.6           0.000    
     77      4     35     34       110.5           110.6           0.000    
     78      5     35     34       110.5           110.6           0.000    
     79      4     36     34       110.5           110.6           0.000    
     80      5     36     34       110.5           110.6           0.000    
     81      4     36     33       110.5           110.6           0.000    
     82      5     36     33       110.5           110.6           0.000    
     83      4     36     32       110.5           110.6           0.000    
     84      5     36     32       110.5           110.6           0.000    
     85      4     37     32       110.5           110.6           0.000    
     86      5     37     32       110.5           110.6           0.000    
     87      4     37     31       110.5           110.6           0.000    
     88      5     37     31       110.5           110.6           0.000    
     89      4     38     31       110.5           110.6           0.000    
     90      5     38     31       110.5           110.6           0.000    
     91      4     38     30       110.4           110.6           0.000    
     92      5     38     30       110.4           110.6           0.000    
     93      4     39     30       110.4           110.6           0.000    
     94      5     39     30       110.4           110.6           0.000    
     95      4     39     29       110.4           110.6           0.000    
     96      5     39     29       110.4           110.6           0.000    
     97      4     40     29       110.4           110.6           0.000    
     98      5     40     29       110.4           110.6           0.000    
     99      4     40     28       110.4           110.6           0.000    
    100      5     40     28       110.4           110.6           0.000    
    101      4     40     27       110.4           110.6           0.000    
    102      5     40     27       110.4           110.6           0.000    
    103      4     41     27       110.4           110.6           0.000    
    104      5     41     27       110.4           110.6           0.000    
    105      4     41     26       110.4           110.6           0.000    
    106      5     41     26       110.4           110.6           0.000    
    107      4     41     25       110.4           110.6           0.000    
    108      5     41     25       110.4           110.6           0.000    
    109      4     41     24       110.4           110.6           0.000    
    110      5     41     24       110.4           110.6           0.000    
    111      4     41     23       110.4           110.6           0.000    
    112      5     41     23       110.4           110.6           0.000    
    113      4     41     22       110.4           110.6           0.000    
    114      5     41     22       110.4           110.6           0.000    
    115      4     42     22       110.4           110.6           0.000    
    116      5     42     22       110.4           110.6           0.000    
    117      4     42     21       110.4           110.6           0.000    
    118      5     42     21       110.4           110.6           0.000    
    119      4     42     20       110.4           110.6           0.000    
    120      5     42     20       110.4           110.6           0.000    
    121      4     42     19       110.4           110.6           0.000    
    122      5     42     19       110.4           110.6           0.000    
    123      4     43     18       110.4           110.6           0.000    
    124      5     43     18       110.4           110.6           0.000    
    125      4     42     18       110.4           110.6           0.000    
    126      5     42     18       110.4           110.6           0.000    
    127      4     42     17       110.4           110.6           0.000    
    128      5     42     17       110.4           110.6           0.000    
    129      4     42     16       110.4           110.6           0.000    
    130      5     42     16       110.4           110.6           0.000    
    131      4     42     15       110.4           110.6           0.000    
    132      5     42     15       110.4           110.6           0.000    
    133      4     43     15       110.4           110.6           0.000    
    134      5     43     15       110.4           110.6           0.000    
    135      4     43     14       110.4           110.6           0.000    
    136      5     43     14       110.4           110.6           0.000    
    137      4     43     13       110.4           110.6           0.000    
    138      5     43     13       110.4           110.6           0.000    
    139      4     43     12       110.4           110.6           0.000    
    140      5     43     12       110.4           110.6           0.000    
    141      4     43     11       110.4           110.5           0.000    
    142      5     43     11       110.4           110.5           0.000    
    143      4     43     10       110.4           110.5           0.000    
    144      5     43     10       110.4           110.5           0.000    
    145      4     44     10       110.4           110.5           0.000    
    146      5     44     10       110.4           110.5           0.000    
    147      4     44      9       110.4           110.5           0.000    
    148      5     44      9       110.4           110.5           0.000    
    149      4     44      8       110.4           110.5           0.000    
    150      5     44      8       110.4           110.5           0.000    
    151      4     44      7       110.4           110.5           0.000    
    152      5     44      7       110.4           110.5           0.000    
    153      4     44      6       110.4           110.5           0.000    
    154      5     44      6       110.4           110.5           0.000    
    155      4     44      5       110.4           110.5           0.000    
    156      5     44      5       110.4           110.5           0.000    
    157      4     44      4       110.4           110.5           0.000    
    158      5     44      4       110.4           110.5           0.000    
    159      4     44      3       110.4           110.5           0.000    
    160      5     44      3       110.4           110.5           0.000    
    161      4     45      3       110.4           110.5           0.000    
    162      5     45      3       110.4           110.5           0.000    
    163      4     45      2       110.4           110.5           0.000    
    164      5     45      2       110.4           110.5           0.000    
    165      4     45      1       110.4           110.5           0.000    
    166      5     45      1       110.4           110.5           0.000    


    166 TIME-VARIANT SPECIFIED-HEAD CELLS

 SOLVING FOR HEAD 


     4 CALLS TO PCG ROUTINE FOR TIME STEP   1 IN STRESS PERIOD   79
    70 TOTAL ITERATIONS

 MAXIMUM HEAD CHANGE FOR EACH ITERATION (1 INDICATES THE FIRST INNER ITERATION):

    HEAD CHANGE    HEAD CHANGE    HEAD CHANGE    HEAD CHANGE    HEAD CHANGE 
   LAYER,ROW,COL  LAYER,ROW,COL  LAYER,ROW,COL  LAYER,ROW,COL  LAYER,ROW,COL
 ---------------------------------------------------------------------------
  1  0.4102      0 -0.2076      0 -0.1357      0 -0.1134      0  0.1277    
   (  5, 43,  5)  (  5, 34,  1)  (  5, 39,  2)  (  5, 41,  2)  (  5, 37,  1)
  0  0.9995E-01  0  0.9241E-01  0 -0.9446E-01  0 -0.5788E-01  0  0.4427E-01
   (  5, 39,  1)  (  5, 40,  1)  (  5, 37,  1)  (  5, 36,  6)  (  5, 35,  1)
  0 -0.4320E-01  0 -0.2128E-01  0  0.2990E-01  0 -0.2554E-01  0  0.1689E-01
   (  5, 35,  9)  (  5, 29,  3)  (  5, 32,  9)  (  5, 30,  9)  (  5, 36,  8)
  0 -0.9376E-02  0  0.1071E-01  0 -0.9133E-02  0 -0.7015E-02  0  0.6625E-02
   (  5, 35,  4)  (  5, 34,  1)  (  5, 15,  1)  (  5, 39,  1)  (  5, 37,  1)
  0 -0.5153E-02  0 -0.3321E-02  0  0.4459E-02  0  0.3795E-02  0 -0.2972E-02
   (  5, 38,  4)  (  5, 32,  4)  (  5, 36,  4)  (  5, 13,  1)  (  5, 13,  1)
  0  0.1920E-02  0 -0.1799E-02  0  0.8367E-03  0 -0.9197E-03  0  0.7803E-03
   (  5, 39,  2)  (  5, 37,  1)  (  5, 33,  3)  (  5, 35,  3)  (  5, 41,  2)
  1  0.5466E-03  0 -0.7785E-03  0  0.8345E-03  0 -0.4550E-03  0 -0.4534E-03
   (  5, 30,  3)  (  5, 33,  1)  (  5, 41,  1)  (  5, 23,  3)  (  5, 33,  2)
  0  0.4347E-03  0 -0.3507E-03  0  0.3159E-03  0 -0.2163E-03  0  0.1772E-03
   (  5, 38,  5)  (  5, 37,  1)  (  5, 39,  2)  (  5, 37,  1)  (  5, 39,  1)
  0  0.9550E-04  0 -0.1117E-03  0  0.1352E-03  0 -0.7982E-04  0  0.4951E-04
   (  5, 31,  3)  (  5, 32,  7)  (  5, 39,  1)  (  5, 32,  4)  (  5, 29, 12)
  0 -0.5778E-04  0  0.3419E-04  0 -0.5746E-04  0  0.4747E-04  0 -0.2229E-04
   (  5, 37,  4)  (  5, 34,  3)  (  5, 39,  1)  (  5, 38,  8)  (  5, 36,  6)
  0  0.2292E-04  0  0.2209E-04  0 -0.1464E-04  0  0.1965E-04  0 -0.9844E-05
   (  5, 29,  1)  (  5, 39,  5)  (  5, 36,  1)  (  5, 39,  1)  (  5, 40,  1)
  0  0.6024E-05  0 -0.7545E-05  0  0.3369E-05  0 -0.3562E-05  0 -0.2740E-05
   (  5, 42,  6)  (  5, 38,  1)  (  5, 34,  2)  (  5, 43,  6)  (  5, 29,  5)
  1  0.1689E-05  0 -0.1851E-05  0 -0.2532E-05  0  0.2703E-05  0  0.2079E-05
   (  5, 30,  2)  (  5, 20,  1)  (  5, 37,  2)  (  5, 35,  3)  (  5, 40,  2)
  0 -0.2068E-05  0  0.1187E-05  0 -0.1074E-05  0  0.7997E-06  1  0.5516E-06
   (  5, 37,  2)  (  5, 26,  6)  (  5, 16,  1)  (  5, 13,  1)  (  5, 30,  9)

 MAXIMUM RESIDUAL FOR EACH ITERATION (1 INDICATES THE FIRST INNER ITERATION):

    RESIDUAL       RESIDUAL       RESIDUAL       RESIDUAL       RESIDUAL    
   LAYER,ROW,COL  LAYER,ROW,COL  LAYER,ROW,COL  LAYER,ROW,COL  LAYER,ROW,COL
 ---------------------------------------------------------------------------
  1 -0.1711E-02  0 -0.1307E-02  0 -0.1211E-02  0 -0.1097E-02  0 -0.9312E-03
   (  4, 44,  2)  (  4, 35, 35)  (  4, 35, 35)  (  4, 35, 35)  (  4, 35, 35)
  0 -0.7646E-03  0 -0.6113E-03  0 -0.4832E-03  0 -0.3809E-03  0  0.3058E-03
   (  4, 35, 35)  (  3, 40, 27)  (  3, 40, 27)  (  3, 40, 27)  (  3, 35, 35)
  0  0.2562E-03  0  0.2311E-03  0  0.2039E-03  0  0.1609E-03  0  0.1250E-03
   (  3, 35, 35)  (  3, 35, 35)  (  3, 35, 35)  (  3, 35, 35)  (  4, 43,  4)
  0  0.1166E-03  0  0.9189E-04  0  0.7304E-04  0  0.5996E-04  0  0.4986E-04
   (  4, 43,  4)  (  4, 43,  4)  (  4, 44,  2)  (  4, 44,  2)  (  4, 44,  2)
  0  0.4310E-04  0  0.3983E-04  0  0.3337E-04  0  0.2640E-04  0  0.2059E-04
   (  4, 44,  2)  (  4, 44,  2)  (  4, 34, 35)  (  4, 34, 35)  (  4, 34, 35)
  0  0.1696E-04  0  0.1481E-04  0  0.1382E-04  0  0.1021E-04  0  0.7080E-05
   (  4, 34, 35)  (  4, 34, 35)  (  4, 34, 35)  (  4, 34, 35)  (  4, 34, 35)
  1  0.6950E-05  0  0.6304E-05  0  0.4927E-05  0  0.4517E-05  0  0.4050E-05
   (  4, 34, 35)  (  4, 34, 35)  (  4, 34, 35)  (  4, 34, 35)  (  4, 34, 35)
  0  0.3666E-05  0  0.3380E-05  0  0.3011E-05  0  0.2722E-05  0  0.2332E-05
   (  4, 34, 35)  (  4, 34, 35)  (  4, 34, 35)  (  4, 34, 35)  (  4, 34, 35)
  0  0.2145E-05  0  0.1812E-05  0  0.1385E-05  0  0.9980E-06  0  0.6842E-06
   (  4, 34, 35)  (  4, 34, 35)  (  4, 34, 35)  (  4, 34, 35)  (  4, 34, 35)
  0 -0.5214E-06  0 -0.4795E-06  0 -0.3457E-06  0 -0.2628E-06  0 -0.2355E-06
   (  4, 35, 35)  (  4, 35, 35)  (  4, 35, 35)  (  4, 35, 35)  (  4, 35, 35)
  0 -0.2129E-06  0 -0.1725E-06  0 -0.1556E-06  0 -0.1214E-06  0 -0.8817E-07
   (  4, 35, 35)  (  4, 35, 35)  (  4, 35, 35)  (  4, 35, 35)  (  4, 35, 35)
  0 -0.6531E-07  0 -0.4768E-07  0 -0.4473E-07  0 -0.3490E-07  0 -0.3011E-07
   (  4, 35, 35)  (  3, 36, 32)  (  3, 36, 32)  (  3, 36, 32)  (  3, 36, 32)
  1 -0.2988E-07  0 -0.2710E-07  0 -0.2428E-07  0 -0.2030E-07  0 -0.1776E-07
   (  3, 36, 32)  (  3, 36, 32)  (  3, 36, 32)  (  3, 36, 32)  (  3, 36, 32)
  0 -0.1462E-07  0 -0.1320E-07  0 -0.1107E-07  0 -0.9387E-08  1 -0.9185E-08
   (  3, 36, 32)  (  3, 36, 32)  (  3, 36, 32)  (  3, 36, 32)  (  3, 36, 32)



 OUTPUT CONTROL FOR STRESS PERIOD   79   TIME STEP    1
    SAVE HEAD FOR ALL LAYERS
    SAVE DRAWDOWN FOR ALL LAYERS
    SAVE BUDGET
    PRINT BUDGET
 UBDSV1 SAVING "         STORAGE" ON UNIT   9 AT TIME STEP  1, STRESS PERIOD  79
 UBDSV2 SAVING "   CONSTANT HEAD" ON UNIT   9 AT TIME STEP  1, STRESS PERIOD  79
 UBDSV1 SAVING "FLOW RIGHT FACE " ON UNIT   9 AT TIME STEP  1, STRESS PERIOD  79
 UBDSV1 SAVING "FLOW FRONT FACE " ON UNIT   9 AT TIME STEP  1, STRESS PERIOD  79
 UBDSV1 SAVING "FLOW LOWER FACE " ON UNIT   9 AT TIME STEP  1, STRESS PERIOD  79
 UBDSV3 SAVING "        RECHARGE" ON UNIT   9 AT TIME STEP  1, STRESS PERIOD  79

 HEAD WILL BE SAVED ON UNIT   37 AT END OF TIME STEP    1, STRESS PERIOD   79

 DRAWDOWN WILL BE SAVED ON UNIT   38 AT END OF TIME STEP    1, STRESS PERIOD   79
1
  VOLUMETRIC BUDGET FOR ENTIRE MODEL AT END OF TIME STEP    1, STRESS PERIOD  79
  ------------------------------------------------------------------------------

     CUMULATIVE VOLUMES      L**3       RATES FOR THIS TIME STEP      L**3/T
     ------------------                 ------------------------

           IN:                                      IN:
           ---                                      ---
             STORAGE =       11254.8994               STORAGE =           0.0000
       CONSTANT HEAD =       22223.3613         CONSTANT HEAD =       5.7498E-03
            RECHARGE =         935.3365              RECHARGE =       1.0213E-04

            TOTAL IN =       34413.5977              TOTAL IN =       5.8519E-03

          OUT:                                     OUT:
          ----                                     ----
             STORAGE =        9775.7930               STORAGE =       5.0011E-03
       CONSTANT HEAD =       24638.7051         CONSTANT HEAD =       8.5079E-04
            RECHARGE =           0.0000              RECHARGE =           0.0000

           TOTAL OUT =       34414.5000             TOTAL OUT =       5.8519E-03

            IN - OUT =          -0.9023              IN - OUT =       3.4925E-08

 PERCENT DISCREPANCY =          -0.00     PERCENT DISCREPANCY =           0.00






         TIME SUMMARY AT END OF TIME STEP    1 IN STRESS PERIOD   79
                    SECONDS     MINUTES      HOURS       DAYS        YEARS
                    -----------------------------------------------------------
   TIME STEP LENGTH  86400.      1440.0      24.000      1.0000     2.73785E-03
 STRESS PERIOD TIME  86400.      1440.0      24.000      1.0000     2.73785E-03
         TOTAL TIME 9.15840E+06 1.52640E+05  2544.0      106.00     0.29021    
1
1
                            STRESS PERIOD NO.   80, LENGTH =   86400.00    
                            -----------------------------------------------

                              NUMBER OF TIME STEPS =     1

                               MULTIPLIER FOR DELT =     1.000

                            INITIAL TIME STEP SIZE =   86400.00    

 REUSING RECH FROM LAST STRESS PERIOD

 CHD NO.   LAYER   ROW   COL    START HEAD        END HEAD         IFACE           
 ----------------------------------------------------------------------------------
      1      4      3      1       110.3           110.4           0.000    
      2      5      3      1       110.3           110.4           0.000    
      3      4      3      2       110.3           110.4           0.000    
      4      5      3      2       110.3           110.4           0.000    
      5      4      3      3       110.3           110.4           0.000    
      6      5      3      3       110.3           110.4           0.000    
      7      4      3      4       110.3           110.4           0.000    
      8      5      3      4       110.3           110.4           0.000    
      9      4      3      5       110.3           110.4           0.000    
     10      5      3      5       110.3           110.4           0.000    
     11      4      3      6       110.3           110.4           0.000    
     12      5      3      6       110.3           110.4           0.000    
     13      4      3      7       110.3           110.4           0.000    
     14      5      3      7       110.3           110.4           0.000    
     15      4      3      8       110.3           110.4           0.000    
     16      5      3      8       110.3           110.4           0.000    
     17      4      2      8       110.3           110.4           0.000    
     18      5      2      8       110.3           110.4           0.000    
     19      4      2      9       110.3           110.4           0.000    
     20      5      2      9       110.3           110.4           0.000    
     21      4      2     10       110.3           110.4           0.000    
     22      5      2     10       110.3           110.4           0.000    
     23      4      2     11       110.3           110.4           0.000    
     24      5      2     11       110.3           110.4           0.000    
     25      4      2     12       110.3           110.4           0.000    
     26      5      2     12       110.3           110.4           0.000    
     27      4      2     13       110.3           110.4           0.000    
     28      5      2     13       110.3           110.4           0.000    
     29      4      2     14       110.3           110.4           0.000    
     30      5      2     14       110.3           110.4           0.000    
     31      4      2     15       110.3           110.4           0.000    
     32      5      2     15       110.3           110.4           0.000    
     33      4      2     16       110.3           110.4           0.000    
     34      5      2     16       110.3           110.4           0.000    
     35      4      2     17       110.3           110.4           0.000    
     36      5      2     17       110.3           110.4           0.000    
     37      4      2     18       110.3           110.4           0.000    
     38      5      2     18       110.3           110.4           0.000    
     39      4      2     19       110.3           110.4           0.000    
     40      5      2     19       110.3           110.4           0.000    
     41      4      2     20       110.3           110.4           0.000    
     42      5      2     20       110.3           110.4           0.000    
     43      4      2     21       110.3           110.4           0.000    
     44      5      2     21       110.3           110.4           0.000    
     45      4      2     22       110.3           110.4           0.000    
     46      5      2     22       110.3           110.4           0.000    
     47      4      2     23       110.3           110.4           0.000    
     48      5      2     23       110.3           110.4           0.000    
     49      4      2     24       110.3           110.4           0.000    
     50      5      2     24       110.3           110.4           0.000    
     51      4      2     25       110.3           110.4           0.000    
     52      5      2     25       110.3           110.4           0.000    
     53      4      2     26       110.3           110.4           0.000    
     54      5      2     26       110.3           110.4           0.000    
     55      4      1     26       110.3           110.4           0.000    
     56      5      1     26       110.3           110.4           0.000    
     57      4      1     27       110.3           110.4           0.000    
     58      5      1     27       110.3           110.4           0.000    
     59      4      1     28       110.3           110.4           0.000    
     60      5      1     28       110.3           110.4           0.000    
     61      4      1     29       110.3           110.4           0.000    
     62      5      1     29       110.3           110.4           0.000    
     63      4      1     30       110.3           110.4           0.000    
     64      5      1     30       110.3           110.4           0.000    
     65      4      1     31       110.3           110.4           0.000    
     66      5      1     31       110.3           110.4           0.000    
     67      4      1     32       110.3           110.4           0.000    
     68      5      1     32       110.3           110.4           0.000    
     69      4      1     33       110.3           110.4           0.000    
     70      5      1     33       110.3           110.4           0.000    
     71      4      1     34       110.3           110.4           0.000    
     72      5      1     34       110.3           110.4           0.000    
     73      4      1     35       110.3           110.4           0.000    
     74      5      1     35       110.3           110.4           0.000    
     75      4     36     35       110.6           110.7           0.000    
     76      5     36     35       110.6           110.7           0.000    
     77      4     35     34       110.6           110.7           0.000    
     78      5     35     34       110.6           110.7           0.000    
     79      4     36     34       110.6           110.7           0.000    
     80      5     36     34       110.6           110.7           0.000    
     81      4     36     33       110.6           110.7           0.000    
     82      5     36     33       110.6           110.7           0.000    
     83      4     36     32       110.6           110.7           0.000    
     84      5     36     32       110.6           110.7           0.000    
     85      4     37     32       110.6           110.7           0.000    
     86      5     37     32       110.6           110.7           0.000    
     87      4     37     31       110.6           110.7           0.000    
     88      5     37     31       110.6           110.7           0.000    
     89      4     38     31       110.6           110.7           0.000    
     90      5     38     31       110.6           110.7           0.000    
     91      4     38     30       110.6           110.7           0.000    
     92      5     38     30       110.6           110.7           0.000    
     93      4     39     30       110.6           110.7           0.000    
     94      5     39     30       110.6           110.7           0.000    
     95      4     39     29       110.6           110.7           0.000    
     96      5     39     29       110.6           110.7           0.000    
     97      4     40     29       110.6           110.7           0.000    
     98      5     40     29       110.6           110.7           0.000    
     99      4     40     28       110.6           110.7           0.000    
    100      5     40     28       110.6           110.7           0.000    
    101      4     40     27       110.6           110.7           0.000    
    102      5     40     27       110.6           110.7           0.000    
    103      4     41     27       110.6           110.7           0.000    
    104      5     41     27       110.6           110.7           0.000    
    105      4     41     26       110.6           110.7           0.000    
    106      5     41     26       110.6           110.7           0.000    
    107      4     41     25       110.6           110.7           0.000    
    108      5     41     25       110.6           110.7           0.000    
    109      4     41     24       110.6           110.7           0.000    
    110      5     41     24       110.6           110.7           0.000    
    111      4     41     23       110.6           110.7           0.000    
    112      5     41     23       110.6           110.7           0.000    
    113      4     41     22       110.6           110.7           0.000    
    114      5     41     22       110.6           110.7           0.000    
    115      4     42     22       110.6           110.7           0.000    
    116      5     42     22       110.6           110.7           0.000    
    117      4     42     21       110.6           110.7           0.000    
    118      5     42     21       110.6           110.7           0.000    
    119      4     42     20       110.6           110.7           0.000    
    120      5     42     20       110.6           110.7           0.000    
    121      4     42     19       110.6           110.7           0.000    
    122      5     42     19       110.6           110.7           0.000    
    123      4     43     18       110.6           110.7           0.000    
    124      5     43     18       110.6           110.7           0.000    
    125      4     42     18       110.6           110.7           0.000    
    126      5     42     18       110.6           110.7           0.000    
    127      4     42     17       110.6           110.7           0.000    
    128      5     42     17       110.6           110.7           0.000    
    129      4     42     16       110.6           110.7           0.000    
    130      5     42     16       110.6           110.7           0.000    
    131      4     42     15       110.6           110.7           0.000    
    132      5     42     15       110.6           110.7           0.000    
    133      4     43     15       110.6           110.7           0.000    
    134      5     43     15       110.6           110.7           0.000    
    135      4     43     14       110.6           110.7           0.000    
    136      5     43     14       110.6           110.7           0.000    
    137      4     43     13       110.6           110.7           0.000    
    138      5     43     13       110.6           110.7           0.000    
    139      4     43     12       110.6           110.7           0.000    
    140      5     43     12       110.6           110.7           0.000    
    141      4     43     11       110.5           110.7           0.000    
    142      5     43     11       110.5           110.7           0.000    
    143      4     43     10       110.5           110.7           0.000    
    144      5     43     10       110.5           110.7           0.000    
    145      4     44     10       110.5           110.7           0.000    
    146      5     44     10       110.5           110.7           0.000    
    147      4     44      9       110.5           110.7           0.000    
    148      5     44      9       110.5           110.7           0.000    
    149      4     44      8       110.5           110.7           0.000    
    150      5     44      8       110.5           110.7           0.000    
    151      4     44      7       110.5           110.7           0.000    
    152      5     44      7       110.5           110.7           0.000    
    153      4     44      6       110.5           110.7           0.000    
    154      5     44      6       110.5           110.7           0.000    
    155      4     44      5       110.5           110.7           0.000    
    156      5     44      5       110.5           110.7           0.000    
    157      4     44      4       110.5           110.7           0.000    
    158      5     44      4       110.5           110.7           0.000    
    159      4     44      3       110.5           110.7           0.000    
    160      5     44      3       110.5           110.7           0.000    
    161      4     45      3       110.5           110.7           0.000    
    162      5     45      3       110.5           110.7           0.000    
    163      4     45      2       110.5           110.7           0.000    
    164      5     45      2       110.5           110.7           0.000    
    165      4     45      1       110.5           110.7           0.000    
    166      5     45      1       110.5           110.7           0.000    


    166 TIME-VARIANT SPECIFIED-HEAD CELLS

 SOLVING FOR HEAD 


     4 CALLS TO PCG ROUTINE FOR TIME STEP   1 IN STRESS PERIOD   80
    69 TOTAL ITERATIONS

 MAXIMUM HEAD CHANGE FOR EACH ITERATION (1 INDICATES THE FIRST INNER ITERATION):

    HEAD CHANGE    HEAD CHANGE    HEAD CHANGE    HEAD CHANGE    HEAD CHANGE 
   LAYER,ROW,COL  LAYER,ROW,COL  LAYER,ROW,COL  LAYER,ROW,COL  LAYER,ROW,COL
 ---------------------------------------------------------------------------
  1  0.4652      0 -0.2452      0 -0.1450      0 -0.1256      0  0.1414    
   (  5, 43,  5)  (  5, 35,  1)  (  5, 40,  2)  (  5, 41,  2)  (  5, 37,  1)
  0  0.1011      0  0.9885E-01  0 -0.1081      0 -0.6377E-01  0 -0.4964E-01
   (  5, 39,  1)  (  5, 40,  1)  (  5, 37,  1)  (  5, 37,  6)  (  5, 40,  1)
  0 -0.4824E-01  0  0.4845E-01  0 -0.2189E-01  0  0.1902E-01  0  0.1843E-01
   (  5, 35,  9)  (  5, 32,  9)  (  5, 33,  5)  (  5, 29,  1)  (  5, 36,  8)
  0 -0.1123E-01  0  0.1287E-01  0 -0.9861E-02  0 -0.7084E-02  0  0.6710E-02
   (  5, 37,  1)  (  5, 34,  1)  (  5, 15,  1)  (  5, 39,  1)  (  5, 37,  1)
  0 -0.5021E-02  0  0.4509E-02  0 -0.2111E-02  0  0.3968E-02  0 -0.3129E-02
   (  5, 38,  4)  (  5, 36,  4)  (  5, 31,  3)  (  5, 13,  1)  (  5, 13,  1)
  0  0.1830E-02  0 -0.1134E-02  0  0.1342E-02  0 -0.1345E-02  0  0.8707E-03
   (  5, 12,  1)  (  5, 34,  3)  (  5, 35,  1)  (  5, 38,  1)  (  5, 41,  2)
  1 -0.5015E-03  0  0.8039E-03  0  0.9392E-03  0 -0.5869E-03  0  0.4227E-03
   (  5, 33,  1)  (  5, 33,  6)  (  5, 41,  1)  (  5, 39,  2)  (  5, 26,  6)
  0  0.4200E-03  0 -0.3453E-03  0  0.2105E-03  0  0.1856E-03  0 -0.1394E-03
   (  5, 37,  2)  (  5, 35,  3)  (  5, 33,  4)  (  5, 32,  8)  (  5, 34,  3)
  0  0.9030E-04  0 -0.1093E-03  0  0.1409E-03  0 -0.8221E-04  0  0.6514E-04
   (  5, 31,  3)  (  5, 37,  1)  (  5, 34,  7)  (  5, 33,  9)  (  5, 34,  8)
  0 -0.5623E-04  0 -0.5518E-04  0  0.3394E-04  0 -0.3791E-04  0  0.1876E-04
   (  5, 30, 10)  (  5, 39,  1)  (  5, 35,  2)  (  5, 30,  1)  (  5, 29,  3)
  0 -0.2759E-04  0  0.2488E-04  0 -0.1691E-04  0  0.1860E-04  0 -0.1076E-04
   (  5, 37,  6)  (  5, 39,  5)  (  5, 35,  1)  (  5, 39,  1)  (  5, 40,  5)
  0 -0.5690E-05  0  0.6781E-05  0 -0.2802E-05  0 -0.4005E-05  0  0.4167E-05
   (  5, 32,  9)  (  5, 41,  5)  (  5, 30,  3)  (  5, 43,  6)  (  5, 38,  2)
  1 -0.1911E-05  0  0.1881E-05  0 -0.1658E-05  0 -0.1866E-05  0  0.1956E-05
   (  5, 37,  3)  (  5, 36,  1)  (  5, 33,  3)  (  5, 31,  5)  (  5, 34,  5)
  0 -0.1438E-05  0  0.1175E-05  0  0.9204E-06  1 -0.7582E-06
   (  5, 12,  1)  (  5, 37,  2)  (  5, 33,  6)  (  5, 35,  7)

 MAXIMUM RESIDUAL FOR EACH ITERATION (1 INDICATES THE FIRST INNER ITERATION):

    RESIDUAL       RESIDUAL       RESIDUAL       RESIDUAL       RESIDUAL    
   LAYER,ROW,COL  LAYER,ROW,COL  LAYER,ROW,COL  LAYER,ROW,COL  LAYER,ROW,COL
 ---------------------------------------------------------------------------
  1 -0.1269E-02  0 -0.1061E-02  0 -0.9752E-03  0 -0.8712E-03  0 -0.7206E-03
   (  4, 44,  2)  (  4, 35, 35)  (  4, 35, 35)  (  4, 35, 35)  (  4, 35, 35)
  0 -0.5778E-03  0  0.5464E-03  0  0.4698E-03  0  0.3849E-03  0  0.3192E-03
   (  4, 35, 35)  (  4, 43,  6)  (  4, 43,  5)  (  4, 43,  4)  (  4, 43,  4)
  0  0.2517E-03  0  0.2002E-03  0  0.1735E-03  0  0.1620E-03  0  0.1340E-03
   (  4, 43,  4)  (  4, 43,  4)  (  4, 44,  2)  (  4, 44,  2)  (  4, 44,  2)
  0  0.1220E-03  0  0.1040E-03  0  0.8052E-04  0  0.6365E-04  0  0.4946E-04
   (  4, 44,  2)  (  4, 44,  2)  (  4, 44,  2)  (  4, 44,  2)  (  4, 44,  2)
  0  0.4337E-04  0  0.3207E-04  0  0.3045E-04  0  0.2110E-04  0  0.1644E-04
   (  4, 44,  2)  (  4, 44,  2)  (  4, 44,  2)  (  4, 44,  2)  (  4, 34, 35)
  0  0.1256E-04  0  0.1151E-04  0  0.9915E-05  0  0.8013E-05  0  0.5371E-05
   (  4, 34, 35)  (  4, 34, 35)  (  4, 34, 35)  (  4, 34, 35)  (  4, 34, 35)
  1  0.5230E-05  0  0.4796E-05  0  0.3682E-05  0  0.3326E-05  0  0.2856E-05
   (  4, 34, 35)  (  4, 34, 35)  (  4, 34, 35)  (  4, 34, 35)  (  4, 34, 35)
  0  0.2649E-05  0  0.2436E-05  0  0.2156E-05  0  0.1934E-05  0  0.1621E-05
   (  4, 34, 35)  (  4, 34, 35)  (  4, 34, 35)  (  4, 34, 35)  (  4, 34, 35)
  0  0.1525E-05  0  0.1244E-05  0  0.8897E-06  0 -0.6206E-06  0 -0.4673E-06
   (  4, 34, 35)  (  4, 34, 35)  (  4, 34, 35)  (  3,  3,  1)  (  3,  3,  1)
  0 -0.3479E-06  0 -0.2604E-06  0 -0.2349E-06  0 -0.1775E-06  0 -0.1668E-06
   (  3,  3,  1)  (  3,  3,  1)  (  3,  3,  1)  (  3,  3,  1)  (  3,  3,  1)
  0 -0.1307E-06  0 -0.1014E-06  0 -0.8675E-07  0 -0.7167E-07  0 -0.5749E-07
   (  3,  3,  1)  (  3,  3,  1)  (  3,  3,  1)  (  3,  3,  1)  (  3, 36, 32)
  0 -0.4674E-07  0 -0.3669E-07  0 -0.3532E-07  0 -0.2880E-07  0 -0.2324E-07
   (  3, 36, 32)  (  3, 36, 32)  (  3, 36, 32)  (  3, 36, 32)  (  3, 36, 32)
  1 -0.2187E-07  0 -0.2099E-07  0 -0.1940E-07  0 -0.1652E-07  0 -0.1455E-07
   (  3, 36, 32)  (  3, 36, 32)  (  3, 36, 32)  (  3, 36, 32)  (  3, 36, 32)
  0 -0.1126E-07  0 -0.9930E-08  0 -0.8247E-08  1 -0.8003E-08
   (  3, 36, 32)  (  3, 36, 32)  (  3, 36, 32)  (  3, 36, 32)



 OUTPUT CONTROL FOR STRESS PERIOD   80   TIME STEP    1
    SAVE HEAD FOR ALL LAYERS
    SAVE DRAWDOWN FOR ALL LAYERS
    SAVE BUDGET
    PRINT BUDGET
 UBDSV1 SAVING "         STORAGE" ON UNIT   9 AT TIME STEP  1, STRESS PERIOD  80
 UBDSV2 SAVING "   CONSTANT HEAD" ON UNIT   9 AT TIME STEP  1, STRESS PERIOD  80
 UBDSV1 SAVING "FLOW RIGHT FACE " ON UNIT   9 AT TIME STEP  1, STRESS PERIOD  80
 UBDSV1 SAVING "FLOW FRONT FACE " ON UNIT   9 AT TIME STEP  1, STRESS PERIOD  80
 UBDSV1 SAVING "FLOW LOWER FACE " ON UNIT   9 AT TIME STEP  1, STRESS PERIOD  80
 UBDSV3 SAVING "        RECHARGE" ON UNIT   9 AT TIME STEP  1, STRESS PERIOD  80

 HEAD WILL BE SAVED ON UNIT   37 AT END OF TIME STEP    1, STRESS PERIOD   80

 DRAWDOWN WILL BE SAVED ON UNIT   38 AT END OF TIME STEP    1, STRESS PERIOD   80
1
  VOLUMETRIC BUDGET FOR ENTIRE MODEL AT END OF TIME STEP    1, STRESS PERIOD  80
  ------------------------------------------------------------------------------

     CUMULATIVE VOLUMES      L**3       RATES FOR THIS TIME STEP      L**3/T
     ------------------                 ------------------------

           IN:                                      IN:
           ---                                      ---
             STORAGE =       11254.8994               STORAGE =           0.0000
       CONSTANT HEAD =       22699.9648         CONSTANT HEAD =       5.5162E-03
            RECHARGE =         944.1604              RECHARGE =       1.0213E-04

            TOTAL IN =       34899.0234              TOTAL IN =       5.6184E-03

          OUT:                                     OUT:
          ----                                     ----
             STORAGE =       10226.6924               STORAGE =       5.2187E-03
       CONSTANT HEAD =       24673.2266         CONSTANT HEAD =       3.9956E-04
            RECHARGE =           0.0000              RECHARGE =           0.0000

           TOTAL OUT =       34899.9180             TOTAL OUT =       5.6183E-03

            IN - OUT =          -0.8945              IN - OUT =       6.9849E-08

 PERCENT DISCREPANCY =          -0.00     PERCENT DISCREPANCY =           0.00






         TIME SUMMARY AT END OF TIME STEP    1 IN STRESS PERIOD   80
                    SECONDS     MINUTES      HOURS       DAYS        YEARS
                    -----------------------------------------------------------
   TIME STEP LENGTH  86400.      1440.0      24.000      1.0000     2.73785E-03
 STRESS PERIOD TIME  86400.      1440.0      24.000      1.0000     2.73785E-03
         TOTAL TIME 9.24480E+06 1.54080E+05  2568.0      107.00     0.29295    
1
1
                            STRESS PERIOD NO.   81, LENGTH =   86400.00    
                            -----------------------------------------------

                              NUMBER OF TIME STEPS =     1

                               MULTIPLIER FOR DELT =     1.000

                            INITIAL TIME STEP SIZE =   86400.00    

 REUSING RECH FROM LAST STRESS PERIOD

 CHD NO.   LAYER   ROW   COL    START HEAD        END HEAD         IFACE           
 ----------------------------------------------------------------------------------
      1      4      3      1       110.4           110.4           0.000    
      2      5      3      1       110.4           110.4           0.000    
      3      4      3      2       110.4           110.4           0.000    
      4      5      3      2       110.4           110.4           0.000    
      5      4      3      3       110.4           110.4           0.000    
      6      5      3      3       110.4           110.4           0.000    
      7      4      3      4       110.4           110.4           0.000    
      8      5      3      4       110.4           110.4           0.000    
      9      4      3      5       110.4           110.4           0.000    
     10      5      3      5       110.4           110.4           0.000    
     11      4      3      6       110.4           110.4           0.000    
     12      5      3      6       110.4           110.4           0.000    
     13      4      3      7       110.4           110.4           0.000    
     14      5      3      7       110.4           110.4           0.000    
     15      4      3      8       110.4           110.4           0.000    
     16      5      3      8       110.4           110.4           0.000    
     17      4      2      8       110.4           110.4           0.000    
     18      5      2      8       110.4           110.4           0.000    
     19      4      2      9       110.4           110.4           0.000    
     20      5      2      9       110.4           110.4           0.000    
     21      4      2     10       110.4           110.4           0.000    
     22      5      2     10       110.4           110.4           0.000    
     23      4      2     11       110.4           110.4           0.000    
     24      5      2     11       110.4           110.4           0.000    
     25      4      2     12       110.4           110.4           0.000    
     26      5      2     12       110.4           110.4           0.000    
     27      4      2     13       110.4           110.4           0.000    
     28      5      2     13       110.4           110.4           0.000    
     29      4      2     14       110.4           110.4           0.000    
     30      5      2     14       110.4           110.4           0.000    
     31      4      2     15       110.4           110.4           0.000    
     32      5      2     15       110.4           110.4           0.000    
     33      4      2     16       110.4           110.4           0.000    
     34      5      2     16       110.4           110.4           0.000    
     35      4      2     17       110.4           110.4           0.000    
     36      5      2     17       110.4           110.4           0.000    
     37      4      2     18       110.4           110.4           0.000    
     38      5      2     18       110.4           110.4           0.000    
     39      4      2     19       110.4           110.4           0.000    
     40      5      2     19       110.4           110.4           0.000    
     41      4      2     20       110.4           110.4           0.000    
     42      5      2     20       110.4           110.4           0.000    
     43      4      2     21       110.4           110.4           0.000    
     44      5      2     21       110.4           110.4           0.000    
     45      4      2     22       110.4           110.4           0.000    
     46      5      2     22       110.4           110.4           0.000    
     47      4      2     23       110.4           110.4           0.000    
     48      5      2     23       110.4           110.4           0.000    
     49      4      2     24       110.4           110.4           0.000    
     50      5      2     24       110.4           110.4           0.000    
     51      4      2     25       110.4           110.4           0.000    
     52      5      2     25       110.4           110.4           0.000    
     53      4      2     26       110.4           110.4           0.000    
     54      5      2     26       110.4           110.4           0.000    
     55      4      1     26       110.4           110.4           0.000    
     56      5      1     26       110.4           110.4           0.000    
     57      4      1     27       110.4           110.4           0.000    
     58      5      1     27       110.4           110.4           0.000    
     59      4      1     28       110.4           110.4           0.000    
     60      5      1     28       110.4           110.4           0.000    
     61      4      1     29       110.4           110.4           0.000    
     62      5      1     29       110.4           110.4           0.000    
     63      4      1     30       110.4           110.4           0.000    
     64      5      1     30       110.4           110.4           0.000    
     65      4      1     31       110.4           110.4           0.000    
     66      5      1     31       110.4           110.4           0.000    
     67      4      1     32       110.4           110.4           0.000    
     68      5      1     32       110.4           110.4           0.000    
     69      4      1     33       110.4           110.4           0.000    
     70      5      1     33       110.4           110.4           0.000    
     71      4      1     34       110.4           110.4           0.000    
     72      5      1     34       110.4           110.4           0.000    
     73      4      1     35       110.4           110.4           0.000    
     74      5      1     35       110.4           110.4           0.000    
     75      4     36     35       110.7           110.5           0.000    
     76      5     36     35       110.7           110.5           0.000    
     77      4     35     34       110.7           110.5           0.000    
     78      5     35     34       110.7           110.5           0.000    
     79      4     36     34       110.7           110.5           0.000    
     80      5     36     34       110.7           110.5           0.000    
     81      4     36     33       110.7           110.5           0.000    
     82      5     36     33       110.7           110.5           0.000    
     83      4     36     32       110.7           110.5           0.000    
     84      5     36     32       110.7           110.5           0.000    
     85      4     37     32       110.7           110.5           0.000    
     86      5     37     32       110.7           110.5           0.000    
     87      4     37     31       110.7           110.5           0.000    
     88      5     37     31       110.7           110.5           0.000    
     89      4     38     31       110.7           110.5           0.000    
     90      5     38     31       110.7           110.5           0.000    
     91      4     38     30       110.7           110.4           0.000    
     92      5     38     30       110.7           110.4           0.000    
     93      4     39     30       110.7           110.4           0.000    
     94      5     39     30       110.7           110.4           0.000    
     95      4     39     29       110.7           110.4           0.000    
     96      5     39     29       110.7           110.4           0.000    
     97      4     40     29       110.7           110.4           0.000    
     98      5     40     29       110.7           110.4           0.000    
     99      4     40     28       110.7           110.4           0.000    
    100      5     40     28       110.7           110.4           0.000    
    101      4     40     27       110.7           110.4           0.000    
    102      5     40     27       110.7           110.4           0.000    
    103      4     41     27       110.7           110.4           0.000    
    104      5     41     27       110.7           110.4           0.000    
    105      4     41     26       110.7           110.4           0.000    
    106      5     41     26       110.7           110.4           0.000    
    107      4     41     25       110.7           110.4           0.000    
    108      5     41     25       110.7           110.4           0.000    
    109      4     41     24       110.7           110.4           0.000    
    110      5     41     24       110.7           110.4           0.000    
    111      4     41     23       110.7           110.4           0.000    
    112      5     41     23       110.7           110.4           0.000    
    113      4     41     22       110.7           110.4           0.000    
    114      5     41     22       110.7           110.4           0.000    
    115      4     42     22       110.7           110.4           0.000    
    116      5     42     22       110.7           110.4           0.000    
    117      4     42     21       110.7           110.4           0.000    
    118      5     42     21       110.7           110.4           0.000    
    119      4     42     20       110.7           110.4           0.000    
    120      5     42     20       110.7           110.4           0.000    
    121      4     42     19       110.7           110.4           0.000    
    122      5     42     19       110.7           110.4           0.000    
    123      4     43     18       110.7           110.4           0.000    
    124      5     43     18       110.7           110.4           0.000    
    125      4     42     18       110.7           110.4           0.000    
    126      5     42     18       110.7           110.4           0.000    
    127      4     42     17       110.7           110.4           0.000    
    128      5     42     17       110.7           110.4           0.000    
    129      4     42     16       110.7           110.4           0.000    
    130      5     42     16       110.7           110.4           0.000    
    131      4     42     15       110.7           110.4           0.000    
    132      5     42     15       110.7           110.4           0.000    
    133      4     43     15       110.7           110.4           0.000    
    134      5     43     15       110.7           110.4           0.000    
    135      4     43     14       110.7           110.4           0.000    
    136      5     43     14       110.7           110.4           0.000    
    137      4     43     13       110.7           110.4           0.000    
    138      5     43     13       110.7           110.4           0.000    
    139      4     43     12       110.7           110.4           0.000    
    140      5     43     12       110.7           110.4           0.000    
    141      4     43     11       110.7           110.4           0.000    
    142      5     43     11       110.7           110.4           0.000    
    143      4     43     10       110.7           110.4           0.000    
    144      5     43     10       110.7           110.4           0.000    
    145      4     44     10       110.7           110.4           0.000    
    146      5     44     10       110.7           110.4           0.000    
    147      4     44      9       110.7           110.4           0.000    
    148      5     44      9       110.7           110.4           0.000    
    149      4     44      8       110.7           110.4           0.000    
    150      5     44      8       110.7           110.4           0.000    
    151      4     44      7       110.7           110.4           0.000    
    152      5     44      7       110.7           110.4           0.000    
    153      4     44      6       110.7           110.4           0.000    
    154      5     44      6       110.7           110.4           0.000    
    155      4     44      5       110.7           110.4           0.000    
    156      5     44      5       110.7           110.4           0.000    
    157      4     44      4       110.7           110.4           0.000    
    158      5     44      4       110.7           110.4           0.000    
    159      4     44      3       110.7           110.4           0.000    
    160      5     44      3       110.7           110.4           0.000    
    161      4     45      3       110.7           110.4           0.000    
    162      5     45      3       110.7           110.4           0.000    
    163      4     45      2       110.7           110.4           0.000    
    164      5     45      2       110.7           110.4           0.000    
    165      4     45      1       110.7           110.4           0.000    
    166      5     45      1       110.7           110.4           0.000    


    166 TIME-VARIANT SPECIFIED-HEAD CELLS

 SOLVING FOR HEAD 


     4 CALLS TO PCG ROUTINE FOR TIME STEP   1 IN STRESS PERIOD   81
    72 TOTAL ITERATIONS

 MAXIMUM HEAD CHANGE FOR EACH ITERATION (1 INDICATES THE FIRST INNER ITERATION):

    HEAD CHANGE    HEAD CHANGE    HEAD CHANGE    HEAD CHANGE    HEAD CHANGE 
   LAYER,ROW,COL  LAYER,ROW,COL  LAYER,ROW,COL  LAYER,ROW,COL  LAYER,ROW,COL
 ---------------------------------------------------------------------------
  1 -0.6727      0  0.3833      0 -0.2274      0  0.1894      0 -0.2725    
   (  5, 43,  5)  (  5, 35,  1)  (  5, 31,  2)  (  5, 41,  2)  (  5, 37,  1)
  0  0.1304      0 -0.1648      0  0.1832      0  0.1031      0  0.8222E-01
   (  5, 35,  2)  (  5, 40,  1)  (  5, 37,  1)  (  5, 37,  6)  (  5, 40,  2)
  0  0.6660E-01  0 -0.5969E-01  0 -0.2479E-01  0  0.4091E-01  0 -0.3520E-01
   (  5, 36, 10)  (  5, 33,  9)  (  5, 30,  1)  (  5, 31,  9)  (  5, 36,  9)
  0 -0.1848E-01  0  0.2049E-01  0 -0.1634E-01  0  0.1361E-01  0  0.1073E-01
   (  5, 35,  2)  (  5, 34,  9)  (  5, 31,  9)  (  5, 30, 10)  (  5, 36,  7)
  0  0.7397E-02  0  0.8082E-02  0 -0.3320E-02  0 -0.7260E-02  0  0.5195E-02
   (  5, 38,  3)  (  5, 32,  4)  (  5, 29,  1)  (  5, 13,  1)  (  5, 13,  1)
  0  0.3783E-02  0 -0.2687E-02  0 -0.1517E-02  0  0.1760E-02  0 -0.1337E-02
   (  5, 37,  1)  (  5, 40,  2)  (  5, 34,  1)  (  5, 12,  2)  (  5, 12,  1)
  1 -0.8534E-03  0  0.6065E-03  0 -0.8420E-03  0 -0.4569E-03  0 -0.5409E-03
   (  5, 32,  5)  (  5, 27,  1)  (  5, 35,  3)  (  5, 25,  4)  (  5, 34,  3)
  0  0.4653E-03  0 -0.4926E-03  0  0.5308E-03  0 -0.4526E-03  0  0.3071E-03
   (  5, 34,  1)  (  5, 37,  3)  (  5, 37,  1)  (  5, 39,  1)  (  5, 37,  1)
  0  0.2481E-03  0 -0.1077E-03  0  0.1756E-03  0 -0.1694E-03  0  0.1026E-03
   (  5, 34,  3)  (  5, 29,  1)  (  5, 41,  2)  (  5, 39,  1)  (  5, 25, 12)
  0  0.9640E-04  0 -0.6100E-04  0  0.7560E-04  0 -0.5516E-04  0 -0.3930E-04
   (  5, 39,  1)  (  5, 36,  1)  (  5, 37,  4)  (  5, 30, 11)  (  5, 36,  9)
  0 -0.1817E-04  0  0.3469E-04  0  0.2260E-04  0 -0.2170E-04  0  0.1612E-04
   (  5, 31,  1)  (  5, 37,  7)  (  5, 36,  1)  (  5, 38,  6)  (  5, 40,  6)
  0  0.1257E-04  0 -0.9262E-05  0  0.8749E-05  0  0.4063E-05  0 -0.2725E-05
   (  5, 40,  1)  (  5, 41,  5)  (  5, 43,  6)  (  5, 26,  4)  (  5, 37,  2)
  1  0.2844E-05  0  0.2561E-05  0  0.2782E-05  0 -0.2945E-05  0 -0.3280E-05
   (  5, 31,  2)  (  5, 36,  2)  (  5, 28,  4)  (  5, 38,  2)  (  5, 14,  2)
  0  0.3566E-05  0 -0.1611E-05  0  0.1443E-05  0  0.1148E-05  0 -0.1084E-05
   (  5, 13,  1)  (  5, 36,  2)  (  5, 38,  1)  (  5, 31,  7)  (  5, 36,  6)
  0  0.5186E-06  1 -0.5068E-06
   (  5, 30,  3)  (  5, 29,  2)

 MAXIMUM RESIDUAL FOR EACH ITERATION (1 INDICATES THE FIRST INNER ITERATION):

    RESIDUAL       RESIDUAL       RESIDUAL       RESIDUAL       RESIDUAL    
   LAYER,ROW,COL  LAYER,ROW,COL  LAYER,ROW,COL  LAYER,ROW,COL  LAYER,ROW,COL
 ---------------------------------------------------------------------------
  1  0.3763E-02  0  0.2919E-02  0  0.2490E-02  0  0.2050E-02  0  0.1720E-02
   (  4, 44,  2)  (  4, 44,  2)  (  4, 44,  2)  (  4, 35, 35)  (  4, 35, 35)
  0  0.1492E-02  0  0.1272E-02  0  0.1020E-02  0  0.8252E-03  0  0.6401E-03
   (  3, 40, 27)  (  3, 40, 27)  (  3, 40, 27)  (  3, 40, 27)  (  3, 40, 27)
  0  0.4950E-03  0  0.3785E-03  0  0.3575E-03  0 -0.2884E-03  0 -0.2287E-03
   (  4, 35, 35)  (  4, 35, 35)  (  4, 35, 35)  (  3, 35, 35)  (  3, 35, 35)
  0 -0.2113E-03  0 -0.1682E-03  0 -0.1253E-03  0 -0.1068E-03  0 -0.9046E-04
   (  3, 35, 35)  (  3, 35, 35)  (  4, 34, 35)  (  4, 34, 35)  (  4, 34, 35)
  0 -0.8382E-04  0 -0.7138E-04  0 -0.6923E-04  0 -0.5607E-04  0 -0.4583E-04
   (  4, 34, 35)  (  4, 34, 35)  (  4, 34, 35)  (  4, 34, 35)  (  4, 34, 35)
  0 -0.4062E-04  0 -0.3326E-04  0 -0.3139E-04  0 -0.2384E-04  0 -0.1690E-04
   (  4, 34, 35)  (  4, 34, 35)  (  4, 34, 35)  (  4, 34, 35)  (  4, 34, 35)
  1 -0.1596E-04  0 -0.1561E-04  0 -0.1261E-04  0 -0.1152E-04  0 -0.9418E-05
   (  4, 34, 35)  (  4, 34, 35)  (  4, 34, 35)  (  4, 34, 35)  (  4, 34, 35)
  0 -0.8230E-05  0 -0.6994E-05  0 -0.5818E-05  0 -0.4804E-05  0 -0.3946E-05
   (  4, 34, 35)  (  4, 34, 35)  (  4, 34, 35)  (  4, 34, 35)  (  4, 34, 35)
  0 -0.3117E-05  0 -0.2968E-05  0  0.2329E-05  0  0.1935E-05  0  0.1439E-05
   (  4, 34, 35)  (  4, 34, 35)  (  4, 35, 35)  (  4, 35, 35)  (  4, 35, 35)
  0  0.1119E-05  0  0.9548E-06  0  0.7991E-06  0  0.5926E-06  0  0.4687E-06
   (  4, 35, 35)  (  4, 35, 35)  (  4, 35, 35)  (  4, 35, 35)  (  4, 35, 35)
  0  0.4410E-06  0  0.3422E-06  0  0.2982E-06  0  0.2249E-06  0  0.1604E-06
   (  4, 35, 35)  (  4, 35, 35)  (  4, 35, 35)  (  4, 35, 35)  (  4, 35, 35)
  0  0.1165E-06  0  0.8610E-07  0  0.5624E-07  0  0.4921E-07  0  0.4485E-07
   (  4, 35, 35)  (  4, 35, 35)  (  4, 35, 35)  (  4, 35, 35)  (  4, 35, 35)
  1  0.4467E-07  0  0.4287E-07  0  0.3994E-07  0  0.3657E-07  0  0.2908E-07
   (  4, 35, 35)  (  4, 35, 35)  (  4, 35, 35)  (  4, 35, 35)  (  4, 35, 35)
  0  0.2480E-07  0  0.2260E-07  0  0.2037E-07  0  0.1753E-07  0  0.1515E-07
   (  4, 35, 35)  (  4, 35, 35)  (  4, 35, 35)  (  4, 35, 35)  (  4, 35, 35)
  0  0.1459E-07  1  0.1450E-07
   (  4, 35, 35)  (  4, 35, 35)



 OUTPUT CONTROL FOR STRESS PERIOD   81   TIME STEP    1
    SAVE HEAD FOR ALL LAYERS
    SAVE DRAWDOWN FOR ALL LAYERS
    SAVE BUDGET
    PRINT BUDGET
 UBDSV1 SAVING "         STORAGE" ON UNIT   9 AT TIME STEP  1, STRESS PERIOD  81
 UBDSV2 SAVING "   CONSTANT HEAD" ON UNIT   9 AT TIME STEP  1, STRESS PERIOD  81
 UBDSV1 SAVING "FLOW RIGHT FACE " ON UNIT   9 AT TIME STEP  1, STRESS PERIOD  81
 UBDSV1 SAVING "FLOW FRONT FACE " ON UNIT   9 AT TIME STEP  1, STRESS PERIOD  81
 UBDSV1 SAVING "FLOW LOWER FACE " ON UNIT   9 AT TIME STEP  1, STRESS PERIOD  81
 UBDSV3 SAVING "        RECHARGE" ON UNIT   9 AT TIME STEP  1, STRESS PERIOD  81

 HEAD WILL BE SAVED ON UNIT   37 AT END OF TIME STEP    1, STRESS PERIOD   81

 DRAWDOWN WILL BE SAVED ON UNIT   38 AT END OF TIME STEP    1, STRESS PERIOD   81
1
  VOLUMETRIC BUDGET FOR ENTIRE MODEL AT END OF TIME STEP    1, STRESS PERIOD  81
  ------------------------------------------------------------------------------

     CUMULATIVE VOLUMES      L**3       RATES FOR THIS TIME STEP      L**3/T
     ------------------                 ------------------------

           IN:                                      IN:
           ---                                      ---
             STORAGE =       11472.2656               STORAGE =       2.5158E-03
       CONSTANT HEAD =       22699.9648         CONSTANT HEAD =           0.0000
            RECHARGE =         952.9843              RECHARGE =       1.0213E-04

            TOTAL IN =       35125.2148              TOTAL IN =       2.6179E-03

          OUT:                                     OUT:
          ----                                     ----
             STORAGE =       10228.4824               STORAGE =       2.0723E-05
       CONSTANT HEAD =       24897.6445         CONSTANT HEAD =       2.5974E-03
            RECHARGE =           0.0000              RECHARGE =           0.0000

           TOTAL OUT =       35126.1250             TOTAL OUT =       2.6182E-03

            IN - OUT =          -0.9102              IN - OUT =      -2.1048E-07

 PERCENT DISCREPANCY =          -0.00     PERCENT DISCREPANCY =          -0.01






         TIME SUMMARY AT END OF TIME STEP    1 IN STRESS PERIOD   81
                    SECONDS     MINUTES      HOURS       DAYS        YEARS
                    -----------------------------------------------------------
   TIME STEP LENGTH  86400.      1440.0      24.000      1.0000     2.73785E-03
 STRESS PERIOD TIME  86400.      1440.0      24.000      1.0000     2.73785E-03
         TOTAL TIME 9.33120E+06 1.55520E+05  2592.0      108.00     0.29569    
1
1
                            STRESS PERIOD NO.   82, LENGTH =   345600.0    
                            -----------------------------------------------

                              NUMBER OF TIME STEPS =     4

                               MULTIPLIER FOR DELT =     1.000

                            INITIAL TIME STEP SIZE =   86400.00    

 REUSING RECH FROM LAST STRESS PERIOD

 CHD NO.   LAYER   ROW   COL    START HEAD        END HEAD         IFACE           
 ----------------------------------------------------------------------------------
      1      4      3      1       110.4           110.4           0.000    
      2      5      3      1       110.4           110.4           0.000    
      3      4      3      2       110.4           110.4           0.000    
      4      5      3      2       110.4           110.4           0.000    
      5      4      3      3       110.4           110.4           0.000    
      6      5      3      3       110.4           110.4           0.000    
      7      4      3      4       110.4           110.4           0.000    
      8      5      3      4       110.4           110.4           0.000    
      9      4      3      5       110.4           110.4           0.000    
     10      5      3      5       110.4           110.4           0.000    
     11      4      3      6       110.4           110.4           0.000    
     12      5      3      6       110.4           110.4           0.000    
     13      4      3      7       110.4           110.4           0.000    
     14      5      3      7       110.4           110.4           0.000    
     15      4      3      8       110.4           110.4           0.000    
     16      5      3      8       110.4           110.4           0.000    
     17      4      2      8       110.4           110.4           0.000    
     18      5      2      8       110.4           110.4           0.000    
     19      4      2      9       110.4           110.4           0.000    
     20      5      2      9       110.4           110.4           0.000    
     21      4      2     10       110.4           110.4           0.000    
     22      5      2     10       110.4           110.4           0.000    
     23      4      2     11       110.4           110.4           0.000    
     24      5      2     11       110.4           110.4           0.000    
     25      4      2     12       110.4           110.4           0.000    
     26      5      2     12       110.4           110.4           0.000    
     27      4      2     13       110.4           110.4           0.000    
     28      5      2     13       110.4           110.4           0.000    
     29      4      2     14       110.4           110.4           0.000    
     30      5      2     14       110.4           110.4           0.000    
     31      4      2     15       110.4           110.4           0.000    
     32      5      2     15       110.4           110.4           0.000    
     33      4      2     16       110.4           110.4           0.000    
     34      5      2     16       110.4           110.4           0.000    
     35      4      2     17       110.4           110.4           0.000    
     36      5      2     17       110.4           110.4           0.000    
     37      4      2     18       110.4           110.4           0.000    
     38      5      2     18       110.4           110.4           0.000    
     39      4      2     19       110.4           110.4           0.000    
     40      5      2     19       110.4           110.4           0.000    
     41      4      2     20       110.4           110.4           0.000    
     42      5      2     20       110.4           110.4           0.000    
     43      4      2     21       110.4           110.4           0.000    
     44      5      2     21       110.4           110.4           0.000    
     45      4      2     22       110.4           110.4           0.000    
     46      5      2     22       110.4           110.4           0.000    
     47      4      2     23       110.4           110.4           0.000    
     48      5      2     23       110.4           110.4           0.000    
     49      4      2     24       110.4           110.4           0.000    
     50      5      2     24       110.4           110.4           0.000    
     51      4      2     25       110.4           110.4           0.000    
     52      5      2     25       110.4           110.4           0.000    
     53      4      2     26       110.4           110.4           0.000    
     54      5      2     26       110.4           110.4           0.000    
     55      4      1     26       110.4           110.4           0.000    
     56      5      1     26       110.4           110.4           0.000    
     57      4      1     27       110.4           110.4           0.000    
     58      5      1     27       110.4           110.4           0.000    
     59      4      1     28       110.4           110.4           0.000    
     60      5      1     28       110.4           110.4           0.000    
     61      4      1     29       110.4           110.4           0.000    
     62      5      1     29       110.4           110.4           0.000    
     63      4      1     30       110.4           110.4           0.000    
     64      5      1     30       110.4           110.4           0.000    
     65      4      1     31       110.4           110.4           0.000    
     66      5      1     31       110.4           110.4           0.000    
     67      4      1     32       110.4           110.4           0.000    
     68      5      1     32       110.4           110.4           0.000    
     69      4      1     33       110.4           110.4           0.000    
     70      5      1     33       110.4           110.4           0.000    
     71      4      1     34       110.4           110.4           0.000    
     72      5      1     34       110.4           110.4           0.000    
     73      4      1     35       110.4           110.4           0.000    
     74      5      1     35       110.4           110.4           0.000    
     75      4     36     35       110.5           110.4           0.000    
     76      5     36     35       110.5           110.4           0.000    
     77      4     35     34       110.5           110.4           0.000    
     78      5     35     34       110.5           110.4           0.000    
     79      4     36     34       110.5           110.4           0.000    
     80      5     36     34       110.5           110.4           0.000    
     81      4     36     33       110.5           110.4           0.000    
     82      5     36     33       110.5           110.4           0.000    
     83      4     36     32       110.5           110.4           0.000    
     84      5     36     32       110.5           110.4           0.000    
     85      4     37     32       110.5           110.4           0.000    
     86      5     37     32       110.5           110.4           0.000    
     87      4     37     31       110.5           110.4           0.000    
     88      5     37     31       110.5           110.4           0.000    
     89      4     38     31       110.5           110.4           0.000    
     90      5     38     31       110.5           110.4           0.000    
     91      4     38     30       110.4           110.4           0.000    
     92      5     38     30       110.4           110.4           0.000    
     93      4     39     30       110.4           110.4           0.000    
     94      5     39     30       110.4           110.4           0.000    
     95      4     39     29       110.4           110.4           0.000    
     96      5     39     29       110.4           110.4           0.000    
     97      4     40     29       110.4           110.4           0.000    
     98      5     40     29       110.4           110.4           0.000    
     99      4     40     28       110.4           110.4           0.000    
    100      5     40     28       110.4           110.4           0.000    
    101      4     40     27       110.4           110.4           0.000    
    102      5     40     27       110.4           110.4           0.000    
    103      4     41     27       110.4           110.4           0.000    
    104      5     41     27       110.4           110.4           0.000    
    105      4     41     26       110.4           110.4           0.000    
    106      5     41     26       110.4           110.4           0.000    
    107      4     41     25       110.4           110.4           0.000    
    108      5     41     25       110.4           110.4           0.000    
    109      4     41     24       110.4           110.4           0.000    
    110      5     41     24       110.4           110.4           0.000    
    111      4     41     23       110.4           110.4           0.000    
    112      5     41     23       110.4           110.4           0.000    
    113      4     41     22       110.4           110.4           0.000    
    114      5     41     22       110.4           110.4           0.000    
    115      4     42     22       110.4           110.4           0.000    
    116      5     42     22       110.4           110.4           0.000    
    117      4     42     21       110.4           110.4           0.000    
    118      5     42     21       110.4           110.4           0.000    
    119      4     42     20       110.4           110.4           0.000    
    120      5     42     20       110.4           110.4           0.000    
    121      4     42     19       110.4           110.4           0.000    
    122      5     42     19       110.4           110.4           0.000    
    123      4     43     18       110.4           110.4           0.000    
    124      5     43     18       110.4           110.4           0.000    
    125      4     42     18       110.4           110.4           0.000    
    126      5     42     18       110.4           110.4           0.000    
    127      4     42     17       110.4           110.4           0.000    
    128      5     42     17       110.4           110.4           0.000    
    129      4     42     16       110.4           110.4           0.000    
    130      5     42     16       110.4           110.4           0.000    
    131      4     42     15       110.4           110.4           0.000    
    132      5     42     15       110.4           110.4           0.000    
    133      4     43     15       110.4           110.4           0.000    
    134      5     43     15       110.4           110.4           0.000    
    135      4     43     14       110.4           110.4           0.000    
    136      5     43     14       110.4           110.4           0.000    
    137      4     43     13       110.4           110.4           0.000    
    138      5     43     13       110.4           110.4           0.000    
    139      4     43     12       110.4           110.4           0.000    
    140      5     43     12       110.4           110.4           0.000    
    141      4     43     11       110.4           110.4           0.000    
    142      5     43     11       110.4           110.4           0.000    
    143      4     43     10       110.4           110.4           0.000    
    144      5     43     10       110.4           110.4           0.000    
    145      4     44     10       110.4           110.4           0.000    
    146      5     44     10       110.4           110.4           0.000    
    147      4     44      9       110.4           110.4           0.000    
    148      5     44      9       110.4           110.4           0.000    
    149      4     44      8       110.4           110.4           0.000    
    150      5     44      8       110.4           110.4           0.000    
    151      4     44      7       110.4           110.4           0.000    
    152      5     44      7       110.4           110.4           0.000    
    153      4     44      6       110.4           110.4           0.000    
    154      5     44      6       110.4           110.4           0.000    
    155      4     44      5       110.4           110.4           0.000    
    156      5     44      5       110.4           110.4           0.000    
    157      4     44      4       110.4           110.4           0.000    
    158      5     44      4       110.4           110.4           0.000    
    159      4     44      3       110.4           110.4           0.000    
    160      5     44      3       110.4           110.4           0.000    
    161      4     45      3       110.4           110.4           0.000    
    162      5     45      3       110.4           110.4           0.000    
    163      4     45      2       110.4           110.4           0.000    
    164      5     45      2       110.4           110.4           0.000    
    165      4     45      1       110.4           110.4           0.000    
    166      5     45      1       110.4           110.4           0.000    


    166 TIME-VARIANT SPECIFIED-HEAD CELLS

 SOLVING FOR HEAD 


     3 CALLS TO PCG ROUTINE FOR TIME STEP   1 IN STRESS PERIOD   82
    58 TOTAL ITERATIONS

 MAXIMUM HEAD CHANGE FOR EACH ITERATION (1 INDICATES THE FIRST INNER ITERATION):

    HEAD CHANGE    HEAD CHANGE    HEAD CHANGE    HEAD CHANGE    HEAD CHANGE 
   LAYER,ROW,COL  LAYER,ROW,COL  LAYER,ROW,COL  LAYER,ROW,COL  LAYER,ROW,COL
 ---------------------------------------------------------------------------
  1 -0.3378E-01  0  0.2073E-01  0  0.2140E-01  0 -0.1965E-01  0 -0.2016E-01
   (  5, 43,  6)  (  5, 32,  1)  (  5, 39,  2)  (  5, 35,  2)  (  5, 37,  1)
  0 -0.1373E-01  0 -0.8499E-02  0  0.8981E-02  0  0.6168E-02  0  0.7293E-02
   (  5, 34,  6)  (  5, 23,  4)  (  5, 27,  8)  (  5, 39,  1)  (  5, 32, 10)
  0  0.5765E-02  0 -0.3476E-02  0  0.2589E-02  0  0.2395E-02  0  0.2024E-02
   (  5, 40,  2)  (  5, 31,  3)  (  5, 29,  4)  (  5, 24,  9)  (  5, 33,  3)
  0 -0.1713E-02  0 -0.1687E-02  0  0.1300E-02  0 -0.7467E-03  0  0.9491E-03
   (  5, 33,  1)  (  5, 28,  6)  (  5, 15,  1)  (  5, 14,  1)  (  5, 38,  4)
  0 -0.3557E-03  0  0.6020E-03  0  0.4376E-03  0  0.4841E-03  0  0.3607E-03
   (  5, 34,  4)  (  5, 30,  3)  (  5, 35,  1)  (  5, 37,  8)  (  5, 40,  5)
  0 -0.2090E-03  0  0.2188E-03  0 -0.1392E-03  0  0.1485E-03  0 -0.1159E-03
   (  5, 12,  2)  (  5, 37,  1)  (  5, 38,  4)  (  5, 34,  3)  (  5, 34,  1)
  1  0.8493E-04  0 -0.8977E-04  0  0.6751E-04  0 -0.9134E-04  0  0.7384E-04
   (  5, 29,  2)  (  5, 34,  4)  (  5, 33,  1)  (  5, 36,  1)  (  5, 39,  2)
  0 -0.7000E-04  0  0.3554E-04  0 -0.3260E-04  0  0.2689E-04  0 -0.2428E-04
   (  5, 13,  2)  (  5, 36,  1)  (  5, 37,  3)  (  5, 30,  9)  (  5, 33, 11)
  0 -0.1176E-04  0  0.1489E-04  0  0.1344E-04  0 -0.1405E-04  0 -0.1042E-04
   (  5, 29,  2)  (  5, 34,  2)  (  5, 41,  2)  (  5, 34,  8)  (  5, 37,  6)
  0  0.6272E-05  0 -0.7337E-05  0 -0.6804E-05  0 -0.3775E-05  0 -0.3349E-05
   (  5, 36,  3)  (  5, 31,  1)  (  5, 37,  8)  (  5, 28, 11)  (  5, 33,  9)
  0  0.2220E-05  0 -0.1990E-05  0 -0.2039E-05  0  0.2199E-05  0  0.1219E-05
   (  5, 31,  3)  (  5, 27, 14)  (  5, 37,  1)  (  5, 40,  1)  (  5, 38,  2)
  0 -0.1104E-05  0  0.6039E-06  1  0.4039E-06
   (  5, 39,  1)  (  5, 21, 11)  (  5, 34,  5)

 MAXIMUM RESIDUAL FOR EACH ITERATION (1 INDICATES THE FIRST INNER ITERATION):

    RESIDUAL       RESIDUAL       RESIDUAL       RESIDUAL       RESIDUAL    
   LAYER,ROW,COL  LAYER,ROW,COL  LAYER,ROW,COL  LAYER,ROW,COL  LAYER,ROW,COL
 ---------------------------------------------------------------------------
  1  0.2096E-03  0  0.1800E-03  0  0.1595E-03  0  0.1412E-03  0  0.1157E-03
   (  4, 44,  2)  (  4, 44,  2)  (  4, 35, 35)  (  4, 35, 35)  (  4, 35, 35)
  0  0.9547E-04  0  0.7906E-04  0  0.6270E-04  0  0.4887E-04  0 -0.3910E-04
   (  4, 35, 35)  (  4, 35, 35)  (  3, 41, 22)  (  3, 41, 22)  (  3, 35, 35)
  0 -0.3300E-04  0 -0.2915E-04  0 -0.2664E-04  0 -0.2126E-04  0 -0.1545E-04
   (  3, 35, 35)  (  3, 35, 35)  (  3, 35, 35)  (  3, 35, 35)  (  4, 43,  4)
  0 -0.1421E-04  0 -0.1185E-04  0 -0.9736E-05  0 -0.7843E-05  0 -0.6258E-05
   (  4, 43,  4)  (  3, 41, 23)  (  3, 41, 23)  (  3, 41, 23)  (  4, 44,  2)
  0 -0.6009E-05  0 -0.5047E-05  0 -0.4594E-05  0 -0.3712E-05  0 -0.2622E-05
   (  4, 44,  2)  (  4, 44,  2)  (  4, 44,  2)  (  4, 44,  2)  (  4, 34, 35)
  0 -0.1948E-05  0 -0.1698E-05  0 -0.1446E-05  0 -0.1200E-05  0 -0.9744E-06
   (  4, 34, 35)  (  4, 34, 35)  (  4, 34, 35)  (  4, 34, 35)  (  4, 34, 35)
  1 -0.9707E-06  0 -0.8849E-06  0 -0.8395E-06  0 -0.7706E-06  0 -0.6374E-06
   (  4, 34, 35)  (  4, 34, 35)  (  4, 34, 35)  (  4, 34, 35)  (  4, 34, 35)
  0 -0.4886E-06  0 -0.3981E-06  0 -0.3418E-06  0  0.2614E-06  0  0.2246E-06
   (  4, 34, 35)  (  4, 34, 35)  (  4, 34, 35)  (  4, 35, 35)  (  4, 35, 35)
  0  0.2161E-06  0  0.1727E-06  0  0.1369E-06  0  0.1067E-06  0  0.7925E-07
   (  4, 35, 35)  (  4, 35, 35)  (  4, 35, 35)  (  4, 35, 35)  (  4, 35, 35)
  0  0.7021E-07  0  0.5376E-07  0  0.3971E-07  0  0.2901E-07  0  0.2298E-07
   (  4, 35, 35)  (  4, 35, 35)  (  4, 35, 35)  (  4, 35, 35)  (  4, 35, 35)
  0  0.2059E-07  0  0.1496E-07  0  0.1314E-07  0  0.9616E-08  0  0.6648E-08
   (  4, 35, 35)  (  4, 35, 35)  (  4, 35, 35)  (  4, 35, 35)  (  4, 35, 35)
  0  0.5278E-08  0  0.4279E-08  1  0.4160E-08
   (  3, 36, 35)  (  3, 36, 35)  (  3, 36, 35)



 OUTPUT CONTROL FOR STRESS PERIOD   82   TIME STEP    1
    SAVE HEAD FOR ALL LAYERS
    SAVE DRAWDOWN FOR ALL LAYERS
    SAVE BUDGET
    PRINT BUDGET
 UBDSV1 SAVING "         STORAGE" ON UNIT   9 AT TIME STEP  1, STRESS PERIOD  82
 UBDSV2 SAVING "   CONSTANT HEAD" ON UNIT   9 AT TIME STEP  1, STRESS PERIOD  82
 UBDSV1 SAVING "FLOW RIGHT FACE " ON UNIT   9 AT TIME STEP  1, STRESS PERIOD  82
 UBDSV1 SAVING "FLOW FRONT FACE " ON UNIT   9 AT TIME STEP  1, STRESS PERIOD  82
 UBDSV1 SAVING "FLOW LOWER FACE " ON UNIT   9 AT TIME STEP  1, STRESS PERIOD  82
 UBDSV3 SAVING "        RECHARGE" ON UNIT   9 AT TIME STEP  1, STRESS PERIOD  82

 HEAD WILL BE SAVED ON UNIT   37 AT END OF TIME STEP    1, STRESS PERIOD   82

 DRAWDOWN WILL BE SAVED ON UNIT   38 AT END OF TIME STEP    1, STRESS PERIOD   82
1
  VOLUMETRIC BUDGET FOR ENTIRE MODEL AT END OF TIME STEP    1, STRESS PERIOD  82
  ------------------------------------------------------------------------------

     CUMULATIVE VOLUMES      L**3       RATES FOR THIS TIME STEP      L**3/T
     ------------------                 ------------------------

           IN:                                      IN:
           ---                                      ---
             STORAGE =       11552.8330               STORAGE =       9.3249E-04
       CONSTANT HEAD =       22706.9824         CONSTANT HEAD =       8.1228E-05
            RECHARGE =         961.8082              RECHARGE =       1.0213E-04

            TOTAL IN =       35221.6250              TOTAL IN =       1.1158E-03

          OUT:                                     OUT:
          ----                                     ----
             STORAGE =       10228.4824               STORAGE =           0.0000
       CONSTANT HEAD =       24994.0723         CONSTANT HEAD =       1.1161E-03
            RECHARGE =           0.0000              RECHARGE =           0.0000

           TOTAL OUT =       35222.5547             TOTAL OUT =       1.1161E-03

            IN - OUT =          -0.9297              IN - OUT =      -2.1863E-07

 PERCENT DISCREPANCY =          -0.00     PERCENT DISCREPANCY =          -0.02






         TIME SUMMARY AT END OF TIME STEP    1 IN STRESS PERIOD   82
                    SECONDS     MINUTES      HOURS       DAYS        YEARS
                    -----------------------------------------------------------
   TIME STEP LENGTH  86400.      1440.0      24.000      1.0000     2.73785E-03
 STRESS PERIOD TIME  86400.      1440.0      24.000      1.0000     2.73785E-03
         TOTAL TIME 9.41760E+06 1.56960E+05  2616.0      109.00     0.29843    
1

 SOLVING FOR HEAD 
     3 CALLS TO PCG ROUTINE FOR TIME STEP   2 IN STRESS PERIOD   82
    55 TOTAL ITERATIONS

 MAXIMUM HEAD CHANGE FOR EACH ITERATION (1 INDICATES THE FIRST INNER ITERATION):

    HEAD CHANGE    HEAD CHANGE    HEAD CHANGE    HEAD CHANGE    HEAD CHANGE 
   LAYER,ROW,COL  LAYER,ROW,COL  LAYER,ROW,COL  LAYER,ROW,COL  LAYER,ROW,COL
 ---------------------------------------------------------------------------
  1 -0.4271E-01  0  0.2170E-01  0  0.1523E-01  0  0.1182E-01  0 -0.1441E-01
   (  5, 43,  5)  (  5, 34,  1)  (  5, 39,  2)  (  5, 41,  2)  (  5, 37,  1)
  0 -0.1013E-01  0 -0.9423E-02  0  0.9731E-02  0  0.5837E-02  0  0.4506E-02
   (  5, 39,  1)  (  5, 40,  1)  (  5, 37,  1)  (  5, 37,  6)  (  5, 40,  2)
  0  0.4464E-02  0 -0.3828E-02  0  0.2249E-02  0  0.2542E-02  0 -0.1777E-02
   (  5, 35,  9)  (  5, 32,  9)  (  5, 29,  3)  (  5, 30,  9)  (  5, 36,  8)
  0  0.1174E-02  0 -0.9514E-03  0  0.1127E-02  0 -0.7665E-03  0  0.7439E-03
   (  5, 27, 11)  (  5, 35,  1)  (  5, 36,  4)  (  5, 38,  7)  (  5, 38,  4)
  0 -0.2991E-03  0  0.5353E-03  0 -0.3650E-03  0 -0.3757E-03  0  0.3019E-03
   (  5, 34,  3)  (  5, 32,  4)  (  5, 34,  7)  (  5, 14,  1)  (  5, 13,  1)
  0 -0.2201E-03  0 -0.1388E-03  0  0.1365E-03  0  0.5365E-04  0 -0.7949E-04
   (  5, 12,  1)  (  5, 40,  2)  (  5, 38,  1)  (  5, 28,  4)  (  5, 31,  6)
  1  0.6378E-04  0 -0.3355E-04  0 -0.5517E-04  0  0.5861E-04  0 -0.5433E-04
   (  5, 32,  2)  (  5, 27,  4)  (  5, 40,  4)  (  5, 39,  2)  (  5, 37,  1)
  0 -0.2897E-04  0 -0.2666E-04  0 -0.2181E-04  0  0.2367E-04  0  0.1580E-04
   (  5, 41,  2)  (  5, 31,  4)  (  5, 37,  3)  (  5, 40,  5)  (  5, 34,  3)
  0 -0.1376E-04  0  0.1505E-04  0  0.1130E-04  0 -0.6107E-05  0 -0.6890E-05
   (  5, 30,  3)  (  5, 41,  2)  (  5, 38,  7)  (  5, 34,  3)  (  5, 31,  9)
  0  0.5665E-05  0 -0.5393E-05  0  0.3063E-05  0  0.2418E-05  0 -0.2092E-05
   (  5, 28,  6)  (  5, 31,  9)  (  5, 39,  1)  (  5, 34,  4)  (  5, 30,  3)
  0 -0.2114E-05  0  0.1236E-05  0 -0.1453E-05  0  0.8854E-06  1 -0.8560E-06
   (  5, 33,  9)  (  5, 37, 10)  (  5, 38,  1)  (  5, 38,  4)  (  5, 35,  2)

 MAXIMUM RESIDUAL FOR EACH ITERATION (1 INDICATES THE FIRST INNER ITERATION):

    RESIDUAL       RESIDUAL       RESIDUAL       RESIDUAL       RESIDUAL    
   LAYER,ROW,COL  LAYER,ROW,COL  LAYER,ROW,COL  LAYER,ROW,COL  LAYER,ROW,COL
 ---------------------------------------------------------------------------
  1  0.1726E-03  0  0.1378E-03  0  0.1274E-03  0  0.1143E-03  0  0.9558E-04
   (  4, 44,  2)  (  4, 35, 35)  (  4, 35, 35)  (  4, 35, 35)  (  4, 35, 35)
  0  0.7788E-04  0  0.6199E-04  0  0.4884E-04  0  0.3825E-04  0 -0.3223E-04
   (  4, 35, 35)  (  3, 40, 27)  (  3, 40, 27)  (  3, 40, 27)  (  3, 35, 35)
  0 -0.2705E-04  0 -0.2377E-04  0 -0.2164E-04  0 -0.1720E-04  0 -0.1327E-04
   (  3, 35, 35)  (  3, 35, 35)  (  3, 35, 35)  (  4, 43,  4)  (  4, 43,  4)
  0 -0.1018E-04  0 -0.9374E-05  0 -0.8073E-05  0 -0.6597E-05  0 -0.5125E-05
   (  4, 43,  4)  (  4, 44,  2)  (  4, 44,  2)  (  4, 44,  2)  (  4, 44,  2)
  0 -0.4839E-05  0 -0.4018E-05  0 -0.3468E-05  0 -0.2672E-05  0 -0.2062E-05
   (  4, 44,  2)  (  4, 44,  2)  (  4, 44,  2)  (  4, 34, 35)  (  4, 34, 35)
  0 -0.1571E-05  0 -0.1334E-05  0 -0.1063E-05  0 -0.9932E-06  0 -0.8038E-06
   (  4, 34, 35)  (  4, 34, 35)  (  4, 34, 35)  (  4, 34, 35)  (  4, 34, 35)
  1 -0.8004E-06  0 -0.7863E-06  0 -0.7132E-06  0 -0.6426E-06  0 -0.5415E-06
   (  4, 34, 35)  (  4, 34, 35)  (  4, 34, 35)  (  4, 34, 35)  (  4, 34, 35)
  0 -0.4007E-06  0 -0.3076E-06  0 -0.2657E-06  0 -0.1840E-06  0 -0.1501E-06
   (  4, 34, 35)  (  4, 34, 35)  (  4, 34, 35)  (  4, 34, 35)  (  4, 34, 35)
  0  0.1294E-06  0  0.1046E-06  0  0.7901E-07  0  0.7338E-07  0  0.5690E-07
   (  4, 35, 35)  (  4, 35, 35)  (  4, 35, 35)  (  4, 35, 35)  (  4, 35, 35)
  0  0.4284E-07  0  0.3006E-07  0  0.2297E-07  0  0.1818E-07  0  0.1622E-07
   (  4, 35, 35)  (  4, 35, 35)  (  4, 35, 35)  (  4, 35, 35)  (  4, 35, 35)
  0  0.1201E-07  0  0.9044E-08  0  0.7164E-08  0  0.6426E-08  1  0.6331E-08
   (  4, 35, 35)  (  4, 35, 35)  (  3, 40, 27)  (  3, 40, 27)  (  3, 40, 27)



 OUTPUT CONTROL FOR STRESS PERIOD   82   TIME STEP    2
    SAVE HEAD FOR ALL LAYERS
    SAVE DRAWDOWN FOR ALL LAYERS
    SAVE BUDGET
    PRINT BUDGET
 UBDSV1 SAVING "         STORAGE" ON UNIT   9 AT TIME STEP  2, STRESS PERIOD  82
 UBDSV2 SAVING "   CONSTANT HEAD" ON UNIT   9 AT TIME STEP  2, STRESS PERIOD  82
 UBDSV1 SAVING "FLOW RIGHT FACE " ON UNIT   9 AT TIME STEP  2, STRESS PERIOD  82
 UBDSV1 SAVING "FLOW FRONT FACE " ON UNIT   9 AT TIME STEP  2, STRESS PERIOD  82
 UBDSV1 SAVING "FLOW LOWER FACE " ON UNIT   9 AT TIME STEP  2, STRESS PERIOD  82
 UBDSV3 SAVING "        RECHARGE" ON UNIT   9 AT TIME STEP  2, STRESS PERIOD  82

 HEAD WILL BE SAVED ON UNIT   37 AT END OF TIME STEP    2, STRESS PERIOD   82

 DRAWDOWN WILL BE SAVED ON UNIT   38 AT END OF TIME STEP    2, STRESS PERIOD   82
1
  VOLUMETRIC BUDGET FOR ENTIRE MODEL AT END OF TIME STEP    2, STRESS PERIOD  82
  ------------------------------------------------------------------------------

     CUMULATIVE VOLUMES      L**3       RATES FOR THIS TIME STEP      L**3/T
     ------------------                 ------------------------

           IN:                                      IN:
           ---                                      ---
             STORAGE =       11603.6875               STORAGE =       5.8859E-04
       CONSTANT HEAD =       22719.8691         CONSTANT HEAD =       1.4916E-04
            RECHARGE =         970.6321              RECHARGE =       1.0213E-04

            TOTAL IN =       35294.1875              TOTAL IN =       8.3988E-04

          OUT:                                     OUT:
          ----                                     ----
             STORAGE =       10228.4824               STORAGE =           0.0000
       CONSTANT HEAD =       25066.6523         CONSTANT HEAD =       8.4005E-04
            RECHARGE =           0.0000              RECHARGE =           0.0000

           TOTAL OUT =       35295.1328             TOTAL OUT =       8.4005E-04

            IN - OUT =          -0.9453              IN - OUT =      -1.7334E-07

 PERCENT DISCREPANCY =          -0.00     PERCENT DISCREPANCY =          -0.02






         TIME SUMMARY AT END OF TIME STEP    2 IN STRESS PERIOD   82
                    SECONDS     MINUTES      HOURS       DAYS        YEARS
                    -----------------------------------------------------------
   TIME STEP LENGTH  86400.      1440.0      24.000      1.0000     2.73785E-03
 STRESS PERIOD TIME 1.72800E+05  2880.0      48.000      2.0000     5.47570E-03
         TOTAL TIME 9.50400E+06 1.58400E+05  2640.0      110.00     0.30116    
1

 SOLVING FOR HEAD 
     3 CALLS TO PCG ROUTINE FOR TIME STEP   3 IN STRESS PERIOD   82
    52 TOTAL ITERATIONS

 MAXIMUM HEAD CHANGE FOR EACH ITERATION (1 INDICATES THE FIRST INNER ITERATION):

    HEAD CHANGE    HEAD CHANGE    HEAD CHANGE    HEAD CHANGE    HEAD CHANGE 
   LAYER,ROW,COL  LAYER,ROW,COL  LAYER,ROW,COL  LAYER,ROW,COL  LAYER,ROW,COL
 ---------------------------------------------------------------------------
  1 -0.4341E-01  0  0.2242E-01  0  0.1372E-01  0  0.1190E-01  0 -0.1360E-01
   (  5, 43,  5)  (  5, 35,  1)  (  5, 39,  2)  (  5, 41,  2)  (  5, 37,  1)
  0 -0.9908E-02  0 -0.9787E-02  0  0.1024E-01  0  0.6032E-02  0  0.4680E-02
   (  5, 39,  1)  (  5, 40,  1)  (  5, 37,  1)  (  5, 36,  6)  (  5, 40,  2)
  0  0.4625E-02  0 -0.4711E-02  0  0.1528E-02  0  0.2222E-02  0 -0.1843E-02
   (  5, 35,  9)  (  5, 32,  9)  (  5, 31,  4)  (  5, 30,  9)  (  5, 36,  9)
  0  0.1246E-02  0 -0.1018E-02  0  0.1003E-02  0 -0.6723E-03  0  0.7009E-03
   (  5, 37,  1)  (  5, 34,  1)  (  5, 36,  4)  (  5, 38,  7)  (  5, 36,  7)
  0  0.4138E-03  0 -0.3080E-03  0  0.2689E-03  0 -0.3154E-03  0  0.3110E-03
   (  5, 14,  1)  (  5, 37,  1)  (  5, 32,  4)  (  5, 13,  1)  (  5, 13,  1)
  0 -0.1871E-03  0  0.1357E-03  0  0.9306E-04  0 -0.7494E-04  0  0.7219E-04
   (  5, 12,  1)  (  5, 38,  1)  (  5, 34,  3)  (  5, 35,  1)  (  5, 38,  2)
  1 -0.5195E-04  0  0.3386E-04  0  0.4562E-04  0 -0.4908E-04  0 -0.3074E-04
   (  5, 40,  5)  (  5, 33,  1)  (  5, 38,  4)  (  5, 35,  3)  (  5, 37,  1)
  0  0.3334E-04  0  0.2345E-04  0 -0.2013E-04  0  0.1851E-04  0 -0.1922E-04
   (  5, 40,  2)  (  5, 38,  4)  (  5, 35,  1)  (  5, 37,  1)  (  5, 39,  1)
  0  0.9872E-05  0  0.6060E-05  0 -0.8716E-05  0 -0.7566E-05  0  0.5914E-05
   (  5, 37,  1)  (  5, 30,  3)  (  5, 31,  5)  (  5, 30,  9)  (  5, 32, 11)
  0 -0.4427E-05  0  0.3648E-05  0  0.1830E-05  0 -0.3346E-05  0  0.2125E-05
   (  5, 32,  9)  (  5, 34,  8)  (  5, 34,  3)  (  5, 38,  8)  (  5, 37,  7)
  0 -0.9447E-06  1  0.9314E-06
   (  5, 36,  4)  (  5, 30,  2)

 MAXIMUM RESIDUAL FOR EACH ITERATION (1 INDICATES THE FIRST INNER ITERATION):

    RESIDUAL       RESIDUAL       RESIDUAL       RESIDUAL       RESIDUAL    
   LAYER,ROW,COL  LAYER,ROW,COL  LAYER,ROW,COL  LAYER,ROW,COL  LAYER,ROW,COL
 ---------------------------------------------------------------------------
  1  0.1696E-03  0  0.1290E-03  0  0.1192E-03  0  0.1076E-03  0  0.9084E-04
   (  4, 44,  2)  (  4, 35, 35)  (  4, 35, 35)  (  4, 35, 35)  (  4, 35, 35)
  0  0.7465E-04  0  0.6013E-04  0  0.4715E-04  0  0.3692E-04  0 -0.3115E-04
   (  4, 35, 35)  (  3, 40, 27)  (  3, 40, 27)  (  3, 40, 27)  (  4, 43,  4)
  0 -0.2555E-04  0 -0.2109E-04  0 -0.2010E-04  0 -0.1633E-04  0 -0.1255E-04
   (  3, 35, 35)  (  4, 43,  4)  (  4, 43,  4)  (  4, 43,  4)  (  4, 43,  4)
  0 -0.1036E-04  0 -0.9666E-05  0 -0.7829E-05  0 -0.6322E-05  0 -0.4796E-05
   (  4, 44,  2)  (  4, 44,  2)  (  4, 44,  2)  (  4, 44,  2)  (  4, 44,  2)
  0 -0.3668E-05  0 -0.3319E-05  0 -0.3146E-05  0 -0.2599E-05  0 -0.2045E-05
   (  4, 44,  2)  (  4, 34, 35)  (  4, 34, 35)  (  4, 34, 35)  (  4, 34, 35)
  0 -0.1551E-05  0 -0.1253E-05  0 -0.1068E-05  0 -0.9973E-06  0 -0.7064E-06
   (  4, 34, 35)  (  4, 34, 35)  (  4, 34, 35)  (  4, 34, 35)  (  4, 34, 35)
  1 -0.6742E-06  0 -0.6594E-06  0 -0.6074E-06  0 -0.5515E-06  0 -0.4991E-06
   (  4, 34, 35)  (  4, 34, 35)  (  4, 34, 35)  (  4, 34, 35)  (  4, 34, 35)
  0 -0.3743E-06  0 -0.2863E-06  0 -0.2459E-06  0 -0.1766E-06  0 -0.1300E-06
   (  4, 34, 35)  (  4, 34, 35)  (  4, 34, 35)  (  4, 34, 35)  (  4, 34, 35)
  0  0.9799E-07  0  0.9290E-07  0  0.6914E-07  0  0.5268E-07  0  0.4023E-07
   (  4, 35, 35)  (  4, 35, 35)  (  4, 35, 35)  (  4, 35, 35)  (  4, 35, 35)
  0  0.2843E-07  0  0.2121E-07  0  0.1934E-07  0  0.1479E-07  0  0.1126E-07
   (  4, 35, 35)  (  4, 35, 35)  (  4, 35, 35)  (  4, 35, 35)  (  4, 35, 35)
  0  0.1018E-07  1  0.1013E-07
   (  4, 35, 35)  (  4, 35, 35)



 OUTPUT CONTROL FOR STRESS PERIOD   82   TIME STEP    3
    SAVE HEAD FOR ALL LAYERS
    SAVE DRAWDOWN FOR ALL LAYERS
    SAVE BUDGET
    PRINT BUDGET
 UBDSV1 SAVING "         STORAGE" ON UNIT   9 AT TIME STEP  3, STRESS PERIOD  82
 UBDSV2 SAVING "   CONSTANT HEAD" ON UNIT   9 AT TIME STEP  3, STRESS PERIOD  82
 UBDSV1 SAVING "FLOW RIGHT FACE " ON UNIT   9 AT TIME STEP  3, STRESS PERIOD  82
 UBDSV1 SAVING "FLOW FRONT FACE " ON UNIT   9 AT TIME STEP  3, STRESS PERIOD  82
 UBDSV1 SAVING "FLOW LOWER FACE " ON UNIT   9 AT TIME STEP  3, STRESS PERIOD  82
 UBDSV3 SAVING "        RECHARGE" ON UNIT   9 AT TIME STEP  3, STRESS PERIOD  82

 HEAD WILL BE SAVED ON UNIT   37 AT END OF TIME STEP    3, STRESS PERIOD   82

 DRAWDOWN WILL BE SAVED ON UNIT   38 AT END OF TIME STEP    3, STRESS PERIOD   82
1
  VOLUMETRIC BUDGET FOR ENTIRE MODEL AT END OF TIME STEP    3, STRESS PERIOD  82
  ------------------------------------------------------------------------------

     CUMULATIVE VOLUMES      L**3       RATES FOR THIS TIME STEP      L**3/T
     ------------------                 ------------------------

           IN:                                      IN:
           ---                                      ---
             STORAGE =       11645.9160               STORAGE =       4.8876E-04
       CONSTANT HEAD =       22733.1699         CONSTANT HEAD =       1.5395E-04
            RECHARGE =         979.4561              RECHARGE =       1.0213E-04

            TOTAL IN =       35358.5430              TOTAL IN =       7.4483E-04

          OUT:                                     OUT:
          ----                                     ----
             STORAGE =       10228.4824               STORAGE =           0.0000
       CONSTANT HEAD =       25131.0215         CONSTANT HEAD =       7.4501E-04
            RECHARGE =           0.0000              RECHARGE =           0.0000

           TOTAL OUT =       35359.5039             TOTAL OUT =       7.4501E-04

            IN - OUT =          -0.9609              IN - OUT =      -1.7451E-07

 PERCENT DISCREPANCY =          -0.00     PERCENT DISCREPANCY =          -0.02






         TIME SUMMARY AT END OF TIME STEP    3 IN STRESS PERIOD   82
                    SECONDS     MINUTES      HOURS       DAYS        YEARS
                    -----------------------------------------------------------
   TIME STEP LENGTH  86400.      1440.0      24.000      1.0000     2.73785E-03
 STRESS PERIOD TIME 2.59200E+05  4320.0      72.000      3.0000     8.21355E-03
         TOTAL TIME 9.59040E+06 1.59840E+05  2664.0      111.00     0.30390    
1

 SOLVING FOR HEAD 
     3 CALLS TO PCG ROUTINE FOR TIME STEP   4 IN STRESS PERIOD   82
    55 TOTAL ITERATIONS

 MAXIMUM HEAD CHANGE FOR EACH ITERATION (1 INDICATES THE FIRST INNER ITERATION):

    HEAD CHANGE    HEAD CHANGE    HEAD CHANGE    HEAD CHANGE    HEAD CHANGE 
   LAYER,ROW,COL  LAYER,ROW,COL  LAYER,ROW,COL  LAYER,ROW,COL  LAYER,ROW,COL
 ---------------------------------------------------------------------------
  1 -0.4322E-01  0  0.2259E-01  0  0.1339E-01  0  0.1188E-01  0 -0.1371E-01
   (  5, 43,  5)  (  5, 35,  1)  (  5, 40,  2)  (  5, 41,  2)  (  5, 37,  1)
  0 -0.9588E-02  0 -0.9771E-02  0  0.1034E-01  0  0.6025E-02  0  0.4704E-02
   (  5, 39,  1)  (  5, 40,  1)  (  5, 37,  1)  (  5, 36,  6)  (  5, 40,  2)
  0  0.4432E-02  0  0.2237E-02  0 -0.3089E-02  0  0.2718E-02  0 -0.1903E-02
   (  5, 35,  9)  (  5, 28,  2)  (  5, 33,  9)  (  5, 30,  9)  (  5, 36,  9)
  0 -0.1187E-02  0  0.8966E-03  0  0.9624E-03  0 -0.6764E-03  0  0.7445E-03
   (  5, 34,  1)  (  5, 36,  4)  (  5, 15,  1)  (  5, 36,  1)  (  5, 38,  4)
  0 -0.5863E-03  0  0.3475E-03  0 -0.4376E-03  0 -0.4153E-03  0  0.3111E-03
   (  5, 37,  1)  (  5, 32,  4)  (  5, 33,  7)  (  5, 13,  1)  (  5, 13,  1)
  0  0.2168E-03  0 -0.1291E-03  0 -0.1005E-03  0  0.5425E-04  0  0.7659E-04
   (  5, 37,  1)  (  5, 40,  2)  (  5, 33,  4)  (  5, 36,  3)  (  5, 31,  4)
  1 -0.4954E-04  0 -0.4776E-04  0  0.4702E-04  0 -0.5660E-04  0 -0.4185E-04
   (  5, 30,  2)  (  5, 40,  5)  (  5, 34,  1)  (  5, 34,  3)  (  5, 37,  1)
  0  0.3957E-04  0 -0.1905E-04  0  0.1807E-04  0  0.1635E-04  0 -0.8455E-05
   (  5, 39,  1)  (  5, 35,  1)  (  5, 37,  2)  (  5, 33,  6)  (  5, 31,  3)
  0  0.1162E-04  0  0.1291E-04  0 -0.1101E-04  0  0.4899E-05  0 -0.4452E-05
   (  5, 30, 13)  (  5, 32,  8)  (  5, 34,  8)  (  5, 32,  4)  (  5, 34,  3)
  0  0.4608E-05  0  0.4002E-05  0  0.2388E-05  0 -0.2907E-05  0  0.1673E-05
   (  5, 37,  4)  (  5, 39,  1)  (  5, 34,  4)  (  5, 30,  3)  (  5, 38,  2)
  0 -0.1378E-05  0  0.1190E-05  0 -0.1406E-05  0  0.8666E-06  1  0.7087E-06
   (  5, 15,  1)  (  5, 38, 10)  (  5, 38,  1)  (  5, 39,  4)  (  5, 34,  6)

 MAXIMUM RESIDUAL FOR EACH ITERATION (1 INDICATES THE FIRST INNER ITERATION):

    RESIDUAL       RESIDUAL       RESIDUAL       RESIDUAL       RESIDUAL    
   LAYER,ROW,COL  LAYER,ROW,COL  LAYER,ROW,COL  LAYER,ROW,COL  LAYER,ROW,COL
 ---------------------------------------------------------------------------
  1  0.1704E-03  0  0.1272E-03  0  0.1175E-03  0  0.1060E-03  0  0.8954E-04
   (  4, 44,  2)  (  4, 35, 35)  (  4, 35, 35)  (  4, 35, 35)  (  4, 35, 35)
  0  0.7397E-04  0  0.5997E-04  0  0.4699E-04  0  0.3678E-04  0 -0.3113E-04
   (  4, 35, 35)  (  3, 40, 27)  (  3, 40, 27)  (  3, 40, 27)  (  4, 43,  4)
  0 -0.2543E-04  0 -0.2296E-04  0 -0.2020E-04  0 -0.1612E-04  0 -0.1238E-04
   (  4, 43,  4)  (  4, 43,  4)  (  4, 43,  4)  (  4, 43,  4)  (  4, 43,  4)
  0 -0.1020E-04  0 -0.9621E-05  0 -0.7764E-05  0 -0.6272E-05  0 -0.5217E-05
   (  4, 44,  2)  (  4, 44,  2)  (  4, 44,  2)  (  4, 44,  2)  (  4, 44,  2)
  0 -0.4451E-05  0 -0.4182E-05  0 -0.3254E-05  0 -0.2596E-05  0 -0.2051E-05
   (  4, 44,  2)  (  4, 44,  2)  (  4, 34, 35)  (  4, 34, 35)  (  4, 34, 35)
  0 -0.1599E-05  0 -0.1431E-05  0 -0.1080E-05  0 -0.1020E-05  0 -0.7602E-06
   (  4, 34, 35)  (  4, 34, 35)  (  4, 34, 35)  (  4, 34, 35)  (  4, 34, 35)
  1 -0.7572E-06  0 -0.7130E-06  0 -0.6772E-06  0 -0.5587E-06  0 -0.4959E-06
   (  4, 34, 35)  (  4, 34, 35)  (  4, 34, 35)  (  4, 34, 35)  (  4, 34, 35)
  0 -0.3771E-06  0 -0.3142E-06  0 -0.2488E-06  0 -0.1753E-06  0 -0.1656E-06
   (  4, 34, 35)  (  4, 34, 35)  (  4, 34, 35)  (  4, 34, 35)  (  4, 34, 35)
  0 -0.1123E-06  0  0.8698E-07  0  0.6719E-07  0  0.4980E-07  0  0.4520E-07
   (  4, 34, 35)  (  4, 35, 35)  (  4, 35, 35)  (  4, 35, 35)  (  4, 35, 35)
  0  0.3210E-07  0  0.2479E-07  0  0.2191E-07  0  0.1793E-07  0  0.1396E-07
   (  4, 35, 35)  (  4, 35, 35)  (  4, 35, 35)  (  4, 35, 35)  (  4, 35, 35)
  0  0.1114E-07  0  0.8102E-08  0  0.6794E-08  0  0.5633E-08  1  0.5435E-08
   (  4, 35, 35)  (  4, 35, 35)  (  4, 35, 35)  (  3, 40, 27)  (  3, 40, 27)



 OUTPUT CONTROL FOR STRESS PERIOD   82   TIME STEP    4
    SAVE HEAD FOR ALL LAYERS
    SAVE DRAWDOWN FOR ALL LAYERS
    SAVE BUDGET
    PRINT BUDGET
 UBDSV1 SAVING "         STORAGE" ON UNIT   9 AT TIME STEP  4, STRESS PERIOD  82
 UBDSV2 SAVING "   CONSTANT HEAD" ON UNIT   9 AT TIME STEP  4, STRESS PERIOD  82
 UBDSV1 SAVING "FLOW RIGHT FACE " ON UNIT   9 AT TIME STEP  4, STRESS PERIOD  82
 UBDSV1 SAVING "FLOW FRONT FACE " ON UNIT   9 AT TIME STEP  4, STRESS PERIOD  82
 UBDSV1 SAVING "FLOW LOWER FACE " ON UNIT   9 AT TIME STEP  4, STRESS PERIOD  82
 UBDSV3 SAVING "        RECHARGE" ON UNIT   9 AT TIME STEP  4, STRESS PERIOD  82

 HEAD WILL BE SAVED ON UNIT   37 AT END OF TIME STEP    4, STRESS PERIOD   82

 DRAWDOWN WILL BE SAVED ON UNIT   38 AT END OF TIME STEP    4, STRESS PERIOD   82
1
  VOLUMETRIC BUDGET FOR ENTIRE MODEL AT END OF TIME STEP    4, STRESS PERIOD  82
  ------------------------------------------------------------------------------

     CUMULATIVE VOLUMES      L**3       RATES FOR THIS TIME STEP      L**3/T
     ------------------                 ------------------------

           IN:                                      IN:
           ---                                      ---
             STORAGE =       11685.4111               STORAGE =       4.5712E-04
       CONSTANT HEAD =       22745.2402         CONSTANT HEAD =       1.3970E-04
            RECHARGE =         988.2800              RECHARGE =       1.0213E-04

            TOTAL IN =       35418.9336              TOTAL IN =       6.9895E-04

          OUT:                                     OUT:
          ----                                     ----
             STORAGE =       10228.4824               STORAGE =           0.0000
       CONSTANT HEAD =       25191.4238         CONSTANT HEAD =       6.9911E-04
            RECHARGE =           0.0000              RECHARGE =           0.0000

           TOTAL OUT =       35419.9062             TOTAL OUT =       6.9911E-04

            IN - OUT =          -0.9727              IN - OUT =      -1.5931E-07

 PERCENT DISCREPANCY =          -0.00     PERCENT DISCREPANCY =          -0.02






         TIME SUMMARY AT END OF TIME STEP    4 IN STRESS PERIOD   82
                    SECONDS     MINUTES      HOURS       DAYS        YEARS
                    -----------------------------------------------------------
   TIME STEP LENGTH  86400.      1440.0      24.000      1.0000     2.73785E-03
 STRESS PERIOD TIME 3.45600E+05  5760.0      96.000      4.0000     1.09514E-02
         TOTAL TIME 9.67680E+06 1.61280E+05  2688.0      112.00     0.30664    
1
1
                            STRESS PERIOD NO.   83, LENGTH =   86400.00    
                            -----------------------------------------------

                              NUMBER OF TIME STEPS =     1

                               MULTIPLIER FOR DELT =     1.000

                            INITIAL TIME STEP SIZE =   86400.00    

 REUSING RECH FROM LAST STRESS PERIOD

 CHD NO.   LAYER   ROW   COL    START HEAD        END HEAD         IFACE           
 ----------------------------------------------------------------------------------
      1      4      3      1       110.4           110.4           0.000    
      2      5      3      1       110.4           110.4           0.000    
      3      4      3      2       110.4           110.4           0.000    
      4      5      3      2       110.4           110.4           0.000    
      5      4      3      3       110.4           110.4           0.000    
      6      5      3      3       110.4           110.4           0.000    
      7      4      3      4       110.4           110.4           0.000    
      8      5      3      4       110.4           110.4           0.000    
      9      4      3      5       110.4           110.4           0.000    
     10      5      3      5       110.4           110.4           0.000    
     11      4      3      6       110.4           110.4           0.000    
     12      5      3      6       110.4           110.4           0.000    
     13      4      3      7       110.4           110.4           0.000    
     14      5      3      7       110.4           110.4           0.000    
     15      4      3      8       110.4           110.4           0.000    
     16      5      3      8       110.4           110.4           0.000    
     17      4      2      8       110.4           110.4           0.000    
     18      5      2      8       110.4           110.4           0.000    
     19      4      2      9       110.4           110.4           0.000    
     20      5      2      9       110.4           110.4           0.000    
     21      4      2     10       110.4           110.4           0.000    
     22      5      2     10       110.4           110.4           0.000    
     23      4      2     11       110.4           110.4           0.000    
     24      5      2     11       110.4           110.4           0.000    
     25      4      2     12       110.4           110.4           0.000    
     26      5      2     12       110.4           110.4           0.000    
     27      4      2     13       110.4           110.4           0.000    
     28      5      2     13       110.4           110.4           0.000    
     29      4      2     14       110.4           110.4           0.000    
     30      5      2     14       110.4           110.4           0.000    
     31      4      2     15       110.4           110.4           0.000    
     32      5      2     15       110.4           110.4           0.000    
     33      4      2     16       110.4           110.4           0.000    
     34      5      2     16       110.4           110.4           0.000    
     35      4      2     17       110.4           110.4           0.000    
     36      5      2     17       110.4           110.4           0.000    
     37      4      2     18       110.4           110.4           0.000    
     38      5      2     18       110.4           110.4           0.000    
     39      4      2     19       110.4           110.4           0.000    
     40      5      2     19       110.4           110.4           0.000    
     41      4      2     20       110.4           110.4           0.000    
     42      5      2     20       110.4           110.4           0.000    
     43      4      2     21       110.4           110.4           0.000    
     44      5      2     21       110.4           110.4           0.000    
     45      4      2     22       110.4           110.4           0.000    
     46      5      2     22       110.4           110.4           0.000    
     47      4      2     23       110.4           110.4           0.000    
     48      5      2     23       110.4           110.4           0.000    
     49      4      2     24       110.4           110.4           0.000    
     50      5      2     24       110.4           110.4           0.000    
     51      4      2     25       110.4           110.4           0.000    
     52      5      2     25       110.4           110.4           0.000    
     53      4      2     26       110.4           110.4           0.000    
     54      5      2     26       110.4           110.4           0.000    
     55      4      1     26       110.4           110.4           0.000    
     56      5      1     26       110.4           110.4           0.000    
     57      4      1     27       110.4           110.4           0.000    
     58      5      1     27       110.4           110.4           0.000    
     59      4      1     28       110.4           110.4           0.000    
     60      5      1     28       110.4           110.4           0.000    
     61      4      1     29       110.4           110.4           0.000    
     62      5      1     29       110.4           110.4           0.000    
     63      4      1     30       110.4           110.4           0.000    
     64      5      1     30       110.4           110.4           0.000    
     65      4      1     31       110.4           110.4           0.000    
     66      5      1     31       110.4           110.4           0.000    
     67      4      1     32       110.4           110.4           0.000    
     68      5      1     32       110.4           110.4           0.000    
     69      4      1     33       110.4           110.4           0.000    
     70      5      1     33       110.4           110.4           0.000    
     71      4      1     34       110.4           110.4           0.000    
     72      5      1     34       110.4           110.4           0.000    
     73      4      1     35       110.4           110.4           0.000    
     74      5      1     35       110.4           110.4           0.000    
     75      4     36     35       110.4           110.5           0.000    
     76      5     36     35       110.4           110.5           0.000    
     77      4     35     34       110.4           110.5           0.000    
     78      5     35     34       110.4           110.5           0.000    
     79      4     36     34       110.4           110.5           0.000    
     80      5     36     34       110.4           110.5           0.000    
     81      4     36     33       110.4           110.5           0.000    
     82      5     36     33       110.4           110.5           0.000    
     83      4     36     32       110.4           110.5           0.000    
     84      5     36     32       110.4           110.5           0.000    
     85      4     37     32       110.4           110.5           0.000    
     86      5     37     32       110.4           110.5           0.000    
     87      4     37     31       110.4           110.5           0.000    
     88      5     37     31       110.4           110.5           0.000    
     89      4     38     31       110.4           110.5           0.000    
     90      5     38     31       110.4           110.5           0.000    
     91      4     38     30       110.4           110.5           0.000    
     92      5     38     30       110.4           110.5           0.000    
     93      4     39     30       110.4           110.5           0.000    
     94      5     39     30       110.4           110.5           0.000    
     95      4     39     29       110.4           110.5           0.000    
     96      5     39     29       110.4           110.5           0.000    
     97      4     40     29       110.4           110.5           0.000    
     98      5     40     29       110.4           110.5           0.000    
     99      4     40     28       110.4           110.5           0.000    
    100      5     40     28       110.4           110.5           0.000    
    101      4     40     27       110.4           110.5           0.000    
    102      5     40     27       110.4           110.5           0.000    
    103      4     41     27       110.4           110.5           0.000    
    104      5     41     27       110.4           110.5           0.000    
    105      4     41     26       110.4           110.5           0.000    
    106      5     41     26       110.4           110.5           0.000    
    107      4     41     25       110.4           110.5           0.000    
    108      5     41     25       110.4           110.5           0.000    
    109      4     41     24       110.4           110.5           0.000    
    110      5     41     24       110.4           110.5           0.000    
    111      4     41     23       110.4           110.5           0.000    
    112      5     41     23       110.4           110.5           0.000    
    113      4     41     22       110.4           110.5           0.000    
    114      5     41     22       110.4           110.5           0.000    
    115      4     42     22       110.4           110.5           0.000    
    116      5     42     22       110.4           110.5           0.000    
    117      4     42     21       110.4           110.5           0.000    
    118      5     42     21       110.4           110.5           0.000    
    119      4     42     20       110.4           110.5           0.000    
    120      5     42     20       110.4           110.5           0.000    
    121      4     42     19       110.4           110.5           0.000    
    122      5     42     19       110.4           110.5           0.000    
    123      4     43     18       110.4           110.5           0.000    
    124      5     43     18       110.4           110.5           0.000    
    125      4     42     18       110.4           110.5           0.000    
    126      5     42     18       110.4           110.5           0.000    
    127      4     42     17       110.4           110.5           0.000    
    128      5     42     17       110.4           110.5           0.000    
    129      4     42     16       110.4           110.5           0.000    
    130      5     42     16       110.4           110.5           0.000    
    131      4     42     15       110.4           110.5           0.000    
    132      5     42     15       110.4           110.5           0.000    
    133      4     43     15       110.4           110.5           0.000    
    134      5     43     15       110.4           110.5           0.000    
    135      4     43     14       110.4           110.5           0.000    
    136      5     43     14       110.4           110.5           0.000    
    137      4     43     13       110.4           110.4           0.000    
    138      5     43     13       110.4           110.4           0.000    
    139      4     43     12       110.4           110.4           0.000    
    140      5     43     12       110.4           110.4           0.000    
    141      4     43     11       110.4           110.4           0.000    
    142      5     43     11       110.4           110.4           0.000    
    143      4     43     10       110.4           110.4           0.000    
    144      5     43     10       110.4           110.4           0.000    
    145      4     44     10       110.4           110.4           0.000    
    146      5     44     10       110.4           110.4           0.000    
    147      4     44      9       110.4           110.4           0.000    
    148      5     44      9       110.4           110.4           0.000    
    149      4     44      8       110.4           110.4           0.000    
    150      5     44      8       110.4           110.4           0.000    
    151      4     44      7       110.4           110.4           0.000    
    152      5     44      7       110.4           110.4           0.000    
    153      4     44      6       110.4           110.4           0.000    
    154      5     44      6       110.4           110.4           0.000    
    155      4     44      5       110.4           110.4           0.000    
    156      5     44      5       110.4           110.4           0.000    
    157      4     44      4       110.4           110.4           0.000    
    158      5     44      4       110.4           110.4           0.000    
    159      4     44      3       110.4           110.4           0.000    
    160      5     44      3       110.4           110.4           0.000    
    161      4     45      3       110.4           110.4           0.000    
    162      5     45      3       110.4           110.4           0.000    
    163      4     45      2       110.4           110.4           0.000    
    164      5     45      2       110.4           110.4           0.000    
    165      4     45      1       110.4           110.4           0.000    
    166      5     45      1       110.4           110.4           0.000    


    166 TIME-VARIANT SPECIFIED-HEAD CELLS

 SOLVING FOR HEAD 


     3 CALLS TO PCG ROUTINE FOR TIME STEP   1 IN STRESS PERIOD   83
    60 TOTAL ITERATIONS

 MAXIMUM HEAD CHANGE FOR EACH ITERATION (1 INDICATES THE FIRST INNER ITERATION):

    HEAD CHANGE    HEAD CHANGE    HEAD CHANGE    HEAD CHANGE    HEAD CHANGE 
   LAYER,ROW,COL  LAYER,ROW,COL  LAYER,ROW,COL  LAYER,ROW,COL  LAYER,ROW,COL
 ---------------------------------------------------------------------------
  1  0.2154      0 -0.1206      0  0.6962E-01  0 -0.6036E-01  0  0.8085E-01
   (  5, 43,  5)  (  5, 35,  1)  (  5, 30,  2)  (  5, 41,  2)  (  5, 37,  1)
  0  0.4304E-01  0  0.5123E-01  0 -0.5632E-01  0 -0.3181E-01  0 -0.2513E-01
   (  5, 39,  1)  (  5, 40,  1)  (  5, 37,  1)  (  5, 37,  6)  (  5, 40,  2)
  0 -0.2176E-01  0  0.2125E-01  0 -0.9038E-02  0 -0.1201E-01  0  0.1112E-01
   (  5, 35,  9)  (  5, 33,  9)  (  5, 30,  3)  (  5, 31,  9)  (  5, 36,  8)
  0 -0.5074E-02  0 -0.7076E-02  0  0.4970E-02  0 -0.3981E-02  0 -0.3431E-02
   (  5, 34,  3)  (  5, 34,  9)  (  5, 31,  9)  (  5, 30, 10)  (  5, 36,  7)
  0 -0.2197E-02  0 -0.2698E-02  0  0.1377E-02  0  0.2299E-02  0 -0.1631E-02
   (  5, 38,  3)  (  5, 32,  4)  (  5, 36,  4)  (  5, 13,  1)  (  5, 13,  1)
  0 -0.1064E-02  0 -0.7076E-03  0  0.5637E-03  0 -0.5405E-03  0  0.4109E-03
   (  5, 37,  1)  (  5, 34,  3)  (  5, 39,  2)  (  5, 38,  1)  (  5, 12,  1)
  1 -0.1544E-03  0  0.2292E-03  0  0.2451E-03  0 -0.2183E-03  0  0.1852E-03
   (  5, 27,  1)  (  5, 33,  6)  (  5, 41,  2)  (  5, 39,  1)  (  5, 37,  1)
  0 -0.9840E-04  0 -0.1113E-03  0  0.1014E-03  0  0.8343E-04  0 -0.6509E-04
   (  5, 30,  9)  (  5, 37,  2)  (  5, 33,  1)  (  5, 33,  9)  (  5, 31,  9)
  0  0.4201E-04  0  0.5544E-04  0  0.5753E-04  0 -0.3176E-04  0  0.3202E-04
   (  5, 31,  3)  (  5, 14,  1)  (  5, 39,  1)  (  5, 33,  5)  (  5, 13,  1)
  0 -0.2378E-04  0 -0.1717E-04  0  0.1485E-04  0 -0.9147E-05  0 -0.7560E-05
   (  5, 29,  9)  (  5, 35,  8)  (  5, 38,  8)  (  5, 34,  3)  (  5, 36,  6)
  0  0.7189E-05  0 -0.7245E-05  0  0.8658E-05  0 -0.4122E-05  0  0.5002E-05
   (  5, 31,  1)  (  5, 28, 11)  (  5, 38,  1)  (  5, 39,  4)  (  5, 36,  2)
  0 -0.3590E-05  0  0.2683E-05  0 -0.2240E-05  0  0.6797E-06  1 -0.6203E-06
   (  5, 37,  6)  (  5, 39,  7)  (  5, 43,  7)  (  5, 29,  3)  (  5, 29,  2)

 MAXIMUM RESIDUAL FOR EACH ITERATION (1 INDICATES THE FIRST INNER ITERATION):

    RESIDUAL       RESIDUAL       RESIDUAL       RESIDUAL       RESIDUAL    
   LAYER,ROW,COL  LAYER,ROW,COL  LAYER,ROW,COL  LAYER,ROW,COL  LAYER,ROW,COL
 ---------------------------------------------------------------------------
  1 -0.1033E-02  0 -0.7810E-03  0 -0.6551E-03  0 -0.5790E-03  0 -0.4853E-03
   (  4, 44,  2)  (  4, 44,  2)  (  4, 44,  2)  (  4, 35, 35)  (  4, 35, 35)
  0 -0.4129E-03  0 -0.3490E-03  0 -0.2770E-03  0 -0.2211E-03  0 -0.1680E-03
   (  3, 40, 27)  (  3, 40, 27)  (  3, 40, 27)  (  3, 40, 27)  (  3, 40, 27)
  0  0.1351E-03  0  0.1118E-03  0  0.1054E-03  0  0.8397E-04  0  0.6593E-04
   (  4, 43,  4)  (  4, 43,  4)  (  4, 43,  4)  (  4, 43,  4)  (  3, 35, 35)
  0  0.6095E-04  0  0.4892E-04  0  0.3932E-04  0  0.3212E-04  0  0.2474E-04
   (  4, 43,  4)  (  4, 44,  2)  (  4, 44,  2)  (  4, 44,  2)  (  4, 44,  2)
  0  0.2273E-04  0  0.1983E-04  0  0.1872E-04  0  0.1504E-04  0  0.1216E-04
   (  4, 34, 35)  (  4, 34, 35)  (  4, 34, 35)  (  4, 34, 35)  (  4, 34, 35)
  0  0.1019E-04  0  0.9114E-05  0  0.8462E-05  0  0.6336E-05  0  0.4461E-05
   (  4, 34, 35)  (  4, 34, 35)  (  4, 34, 35)  (  4, 34, 35)  (  4, 34, 35)
  1  0.4425E-05  0  0.4136E-05  0  0.3430E-05  0  0.2793E-05  0  0.2447E-05
   (  4, 34, 35)  (  4, 34, 35)  (  4, 34, 35)  (  4, 34, 35)  (  4, 34, 35)
  0  0.2131E-05  0  0.1824E-05  0  0.1551E-05  0  0.1197E-05  0  0.9389E-06
   (  4, 34, 35)  (  4, 34, 35)  (  4, 34, 35)  (  4, 34, 35)  (  4, 34, 35)
  0  0.8569E-06  0  0.6506E-06  0  0.4650E-06  0 -0.3746E-06  0 -0.2840E-06
   (  4, 34, 35)  (  4, 34, 35)  (  4, 34, 35)  (  4, 35, 35)  (  4, 35, 35)
  0 -0.2117E-06  0 -0.1624E-06  0 -0.1296E-06  0 -0.1152E-06  0 -0.9406E-07
   (  4, 35, 35)  (  4, 35, 35)  (  4, 35, 35)  (  4, 35, 35)  (  4, 35, 35)
  0 -0.8567E-07  0 -0.6364E-07  0 -0.5005E-07  0 -0.4303E-07  0 -0.3225E-07
   (  4, 35, 35)  (  4, 35, 35)  (  4, 35, 35)  (  4, 35, 35)  (  4, 35, 35)
  0 -0.2398E-07  0 -0.1846E-07  0 -0.1250E-07  0 -0.1212E-07  1 -0.1206E-07
   (  4, 35, 35)  (  3, 41, 22)  (  3, 36, 35)  (  3, 36, 35)  (  3, 36, 35)



 OUTPUT CONTROL FOR STRESS PERIOD   83   TIME STEP    1
    SAVE HEAD FOR ALL LAYERS
    SAVE DRAWDOWN FOR ALL LAYERS
    SAVE BUDGET
    PRINT BUDGET
 UBDSV1 SAVING "         STORAGE" ON UNIT   9 AT TIME STEP  1, STRESS PERIOD  83
 UBDSV2 SAVING "   CONSTANT HEAD" ON UNIT   9 AT TIME STEP  1, STRESS PERIOD  83
 UBDSV1 SAVING "FLOW RIGHT FACE " ON UNIT   9 AT TIME STEP  1, STRESS PERIOD  83
 UBDSV1 SAVING "FLOW FRONT FACE " ON UNIT   9 AT TIME STEP  1, STRESS PERIOD  83
 UBDSV1 SAVING "FLOW LOWER FACE " ON UNIT   9 AT TIME STEP  1, STRESS PERIOD  83
 UBDSV3 SAVING "        RECHARGE" ON UNIT   9 AT TIME STEP  1, STRESS PERIOD  83

 HEAD WILL BE SAVED ON UNIT   37 AT END OF TIME STEP    1, STRESS PERIOD   83

 DRAWDOWN WILL BE SAVED ON UNIT   38 AT END OF TIME STEP    1, STRESS PERIOD   83
1
  VOLUMETRIC BUDGET FOR ENTIRE MODEL AT END OF TIME STEP    1, STRESS PERIOD  83
  ------------------------------------------------------------------------------

     CUMULATIVE VOLUMES      L**3       RATES FOR THIS TIME STEP      L**3/T
     ------------------                 ------------------------

           IN:                                      IN:
           ---                                      ---
             STORAGE =       11685.4111               STORAGE =           0.0000
       CONSTANT HEAD =       22865.9492         CONSTANT HEAD =       1.3971E-03
            RECHARGE =         997.1039              RECHARGE =       1.0213E-04

            TOTAL IN =       35548.4648              TOTAL IN =       1.4992E-03

          OUT:                                     OUT:
          ----                                     ----
             STORAGE =       10353.7441               STORAGE =       1.4498E-03
       CONSTANT HEAD =       25195.6816         CONSTANT HEAD =       4.9284E-05
            RECHARGE =           0.0000              RECHARGE =           0.0000

           TOTAL OUT =       35549.4258             TOTAL OUT =       1.4991E-03

            IN - OUT =          -0.9609              IN - OUT =       1.4692E-07

 PERCENT DISCREPANCY =          -0.00     PERCENT DISCREPANCY =           0.01






         TIME SUMMARY AT END OF TIME STEP    1 IN STRESS PERIOD   83
                    SECONDS     MINUTES      HOURS       DAYS        YEARS
                    -----------------------------------------------------------
   TIME STEP LENGTH  86400.      1440.0      24.000      1.0000     2.73785E-03
 STRESS PERIOD TIME  86400.      1440.0      24.000      1.0000     2.73785E-03
         TOTAL TIME 9.76320E+06 1.62720E+05  2712.0      113.00     0.30938    
1
1
                            STRESS PERIOD NO.   84, LENGTH =   86400.00    
                            -----------------------------------------------

                              NUMBER OF TIME STEPS =     1

                               MULTIPLIER FOR DELT =     1.000

                            INITIAL TIME STEP SIZE =   86400.00    

 REUSING RECH FROM LAST STRESS PERIOD

 CHD NO.   LAYER   ROW   COL    START HEAD        END HEAD         IFACE           
 ----------------------------------------------------------------------------------
      1      4      3      1       110.4           110.4           0.000    
      2      5      3      1       110.4           110.4           0.000    
      3      4      3      2       110.4           110.4           0.000    
      4      5      3      2       110.4           110.4           0.000    
      5      4      3      3       110.4           110.4           0.000    
      6      5      3      3       110.4           110.4           0.000    
      7      4      3      4       110.4           110.4           0.000    
      8      5      3      4       110.4           110.4           0.000    
      9      4      3      5       110.4           110.4           0.000    
     10      5      3      5       110.4           110.4           0.000    
     11      4      3      6       110.4           110.4           0.000    
     12      5      3      6       110.4           110.4           0.000    
     13      4      3      7       110.4           110.4           0.000    
     14      5      3      7       110.4           110.4           0.000    
     15      4      3      8       110.4           110.4           0.000    
     16      5      3      8       110.4           110.4           0.000    
     17      4      2      8       110.4           110.4           0.000    
     18      5      2      8       110.4           110.4           0.000    
     19      4      2      9       110.4           110.4           0.000    
     20      5      2      9       110.4           110.4           0.000    
     21      4      2     10       110.4           110.4           0.000    
     22      5      2     10       110.4           110.4           0.000    
     23      4      2     11       110.4           110.4           0.000    
     24      5      2     11       110.4           110.4           0.000    
     25      4      2     12       110.4           110.4           0.000    
     26      5      2     12       110.4           110.4           0.000    
     27      4      2     13       110.4           110.4           0.000    
     28      5      2     13       110.4           110.4           0.000    
     29      4      2     14       110.4           110.4           0.000    
     30      5      2     14       110.4           110.4           0.000    
     31      4      2     15       110.4           110.4           0.000    
     32      5      2     15       110.4           110.4           0.000    
     33      4      2     16       110.4           110.4           0.000    
     34      5      2     16       110.4           110.4           0.000    
     35      4      2     17       110.4           110.4           0.000    
     36      5      2     17       110.4           110.4           0.000    
     37      4      2     18       110.4           110.4           0.000    
     38      5      2     18       110.4           110.4           0.000    
     39      4      2     19       110.4           110.4           0.000    
     40      5      2     19       110.4           110.4           0.000    
     41      4      2     20       110.4           110.4           0.000    
     42      5      2     20       110.4           110.4           0.000    
     43      4      2     21       110.4           110.4           0.000    
     44      5      2     21       110.4           110.4           0.000    
     45      4      2     22       110.4           110.4           0.000    
     46      5      2     22       110.4           110.4           0.000    
     47      4      2     23       110.4           110.4           0.000    
     48      5      2     23       110.4           110.4           0.000    
     49      4      2     24       110.4           110.4           0.000    
     50      5      2     24       110.4           110.4           0.000    
     51      4      2     25       110.4           110.4           0.000    
     52      5      2     25       110.4           110.4           0.000    
     53      4      2     26       110.4           110.4           0.000    
     54      5      2     26       110.4           110.4           0.000    
     55      4      1     26       110.4           110.4           0.000    
     56      5      1     26       110.4           110.4           0.000    
     57      4      1     27       110.4           110.4           0.000    
     58      5      1     27       110.4           110.4           0.000    
     59      4      1     28       110.4           110.4           0.000    
     60      5      1     28       110.4           110.4           0.000    
     61      4      1     29       110.4           110.4           0.000    
     62      5      1     29       110.4           110.4           0.000    
     63      4      1     30       110.4           110.4           0.000    
     64      5      1     30       110.4           110.4           0.000    
     65      4      1     31       110.4           110.4           0.000    
     66      5      1     31       110.4           110.4           0.000    
     67      4      1     32       110.4           110.4           0.000    
     68      5      1     32       110.4           110.4           0.000    
     69      4      1     33       110.4           110.4           0.000    
     70      5      1     33       110.4           110.4           0.000    
     71      4      1     34       110.4           110.4           0.000    
     72      5      1     34       110.4           110.4           0.000    
     73      4      1     35       110.4           110.4           0.000    
     74      5      1     35       110.4           110.4           0.000    
     75      4     36     35       110.5           110.5           0.000    
     76      5     36     35       110.5           110.5           0.000    
     77      4     35     34       110.5           110.5           0.000    
     78      5     35     34       110.5           110.5           0.000    
     79      4     36     34       110.5           110.5           0.000    
     80      5     36     34       110.5           110.5           0.000    
     81      4     36     33       110.5           110.5           0.000    
     82      5     36     33       110.5           110.5           0.000    
     83      4     36     32       110.5           110.5           0.000    
     84      5     36     32       110.5           110.5           0.000    
     85      4     37     32       110.5           110.5           0.000    
     86      5     37     32       110.5           110.5           0.000    
     87      4     37     31       110.5           110.5           0.000    
     88      5     37     31       110.5           110.5           0.000    
     89      4     38     31       110.5           110.5           0.000    
     90      5     38     31       110.5           110.5           0.000    
     91      4     38     30       110.5           110.5           0.000    
     92      5     38     30       110.5           110.5           0.000    
     93      4     39     30       110.5           110.5           0.000    
     94      5     39     30       110.5           110.5           0.000    
     95      4     39     29       110.5           110.5           0.000    
     96      5     39     29       110.5           110.5           0.000    
     97      4     40     29       110.5           110.5           0.000    
     98      5     40     29       110.5           110.5           0.000    
     99      4     40     28       110.5           110.5           0.000    
    100      5     40     28       110.5           110.5           0.000    
    101      4     40     27       110.5           110.5           0.000    
    102      5     40     27       110.5           110.5           0.000    
    103      4     41     27       110.5           110.5           0.000    
    104      5     41     27       110.5           110.5           0.000    
    105      4     41     26       110.5           110.5           0.000    
    106      5     41     26       110.5           110.5           0.000    
    107      4     41     25       110.5           110.5           0.000    
    108      5     41     25       110.5           110.5           0.000    
    109      4     41     24       110.5           110.5           0.000    
    110      5     41     24       110.5           110.5           0.000    
    111      4     41     23       110.5           110.5           0.000    
    112      5     41     23       110.5           110.5           0.000    
    113      4     41     22       110.5           110.5           0.000    
    114      5     41     22       110.5           110.5           0.000    
    115      4     42     22       110.5           110.5           0.000    
    116      5     42     22       110.5           110.5           0.000    
    117      4     42     21       110.5           110.5           0.000    
    118      5     42     21       110.5           110.5           0.000    
    119      4     42     20       110.5           110.5           0.000    
    120      5     42     20       110.5           110.5           0.000    
    121      4     42     19       110.5           110.5           0.000    
    122      5     42     19       110.5           110.5           0.000    
    123      4     43     18       110.5           110.5           0.000    
    124      5     43     18       110.5           110.5           0.000    
    125      4     42     18       110.5           110.5           0.000    
    126      5     42     18       110.5           110.5           0.000    
    127      4     42     17       110.5           110.5           0.000    
    128      5     42     17       110.5           110.5           0.000    
    129      4     42     16       110.5           110.5           0.000    
    130      5     42     16       110.5           110.5           0.000    
    131      4     42     15       110.5           110.5           0.000    
    132      5     42     15       110.5           110.5           0.000    
    133      4     43     15       110.5           110.5           0.000    
    134      5     43     15       110.5           110.5           0.000    
    135      4     43     14       110.5           110.5           0.000    
    136      5     43     14       110.5           110.5           0.000    
    137      4     43     13       110.4           110.5           0.000    
    138      5     43     13       110.4           110.5           0.000    
    139      4     43     12       110.4           110.5           0.000    
    140      5     43     12       110.4           110.5           0.000    
    141      4     43     11       110.4           110.5           0.000    
    142      5     43     11       110.4           110.5           0.000    
    143      4     43     10       110.4           110.5           0.000    
    144      5     43     10       110.4           110.5           0.000    
    145      4     44     10       110.4           110.5           0.000    
    146      5     44     10       110.4           110.5           0.000    
    147      4     44      9       110.4           110.5           0.000    
    148      5     44      9       110.4           110.5           0.000    
    149      4     44      8       110.4           110.5           0.000    
    150      5     44      8       110.4           110.5           0.000    
    151      4     44      7       110.4           110.5           0.000    
    152      5     44      7       110.4           110.5           0.000    
    153      4     44      6       110.4           110.5           0.000    
    154      5     44      6       110.4           110.5           0.000    
    155      4     44      5       110.4           110.5           0.000    
    156      5     44      5       110.4           110.5           0.000    
    157      4     44      4       110.4           110.5           0.000    
    158      5     44      4       110.4           110.5           0.000    
    159      4     44      3       110.4           110.5           0.000    
    160      5     44      3       110.4           110.5           0.000    
    161      4     45      3       110.4           110.5           0.000    
    162      5     45      3       110.4           110.5           0.000    
    163      4     45      2       110.4           110.5           0.000    
    164      5     45      2       110.4           110.5           0.000    
    165      4     45      1       110.4           110.5           0.000    
    166      5     45      1       110.4           110.5           0.000    


    166 TIME-VARIANT SPECIFIED-HEAD CELLS

 SOLVING FOR HEAD 


     3 CALLS TO PCG ROUTINE FOR TIME STEP   1 IN STRESS PERIOD   84
    58 TOTAL ITERATIONS

 MAXIMUM HEAD CHANGE FOR EACH ITERATION (1 INDICATES THE FIRST INNER ITERATION):

    HEAD CHANGE    HEAD CHANGE    HEAD CHANGE    HEAD CHANGE    HEAD CHANGE 
   LAYER,ROW,COL  LAYER,ROW,COL  LAYER,ROW,COL  LAYER,ROW,COL  LAYER,ROW,COL
 ---------------------------------------------------------------------------
  1  0.8877E-01  0 -0.4645E-01  0 -0.3033E-01  0 -0.2343E-01  0  0.2705E-01
   (  5, 43,  5)  (  5, 34,  1)  (  5, 39,  2)  (  5, 41,  2)  (  5, 37,  1)
  0  0.1869E-01  0  0.1726E-01  0 -0.1969E-01  0 -0.1201E-01  0 -0.9207E-02
   (  5, 39,  1)  (  5, 40,  1)  (  5, 37,  1)  (  5, 37,  6)  (  5, 40,  1)
  0 -0.8712E-02  0  0.8661E-02  0  0.3291E-02  0 -0.5120E-02  0  0.3352E-02
   (  5, 36, 10)  (  5, 32,  9)  (  5, 30,  1)  (  5, 30,  9)  (  5, 36,  8)
  0 -0.2165E-02  0 -0.1717E-02  0 -0.1765E-02  0 -0.1243E-02  0 -0.1321E-02
   (  5, 27, 11)  (  5, 36,  4)  (  5, 15,  1)  (  5, 39,  1)  (  5, 36,  7)
  0 -0.7728E-03  0 -0.7383E-03  0  0.4602E-03  0  0.5977E-03  0 -0.5837E-03
   (  5, 39,  4)  (  5, 32,  4)  (  5, 29,  1)  (  5, 14,  1)  (  5, 13,  1)
  0  0.3866E-03  0  0.2439E-03  0 -0.2290E-03  0  0.1353E-03  0 -0.1158E-03
   (  5, 12,  1)  (  5, 40,  2)  (  5, 38,  1)  (  5, 35,  1)  (  5, 35,  6)
  1  0.8757E-04  0 -0.5646E-04  0 -0.9518E-04  0  0.5630E-04  0 -0.6463E-04
   (  5, 40,  5)  (  5, 34,  1)  (  5, 32,  4)  (  5, 34,  3)  (  5, 39,  2)
  0  0.7006E-04  0  0.5319E-04  0  0.4672E-04  0 -0.2934E-04  0  0.3366E-04
   (  5, 37,  1)  (  5, 30, 12)  (  5, 34,  1)  (  5, 37,  1)  (  5, 38,  4)
  0  0.2164E-04  0  0.1914E-04  0  0.1019E-04  0 -0.1317E-04  0  0.1296E-04
   (  5, 30,  9)  (  5, 39,  1)  (  5, 29,  1)  (  5, 32,  4)  (  5, 37,  1)
  0 -0.9014E-05  0 -0.8339E-05  0  0.6192E-05  0  0.6599E-05  0  0.2427E-05
   (  5, 33,  1)  (  5, 39,  1)  (  5, 29, 11)  (  5, 38,  8)  (  5, 41,  2)
  0 -0.2658E-05  0  0.2058E-05  0  0.1771E-05  0 -0.1877E-05  0 -0.1703E-05
   (  5, 32,  5)  (  5, 30,  1)  (  5, 36,  6)  (  5, 40,  6)  (  5, 38,  1)
  0  0.1028E-05  0 -0.5076E-06  1 -0.4138E-06
   (  5, 41,  5)  (  5, 28,  6)  (  5, 36,  2)

 MAXIMUM RESIDUAL FOR EACH ITERATION (1 INDICATES THE FIRST INNER ITERATION):

    RESIDUAL       RESIDUAL       RESIDUAL       RESIDUAL       RESIDUAL    
   LAYER,ROW,COL  LAYER,ROW,COL  LAYER,ROW,COL  LAYER,ROW,COL  LAYER,ROW,COL
 ---------------------------------------------------------------------------
  1 -0.2377E-03  0 -0.1958E-03  0 -0.1755E-03  0 -0.1560E-03  0 -0.1330E-03
   (  3,  3,  1)  (  3,  3,  1)  (  3,  3,  1)  (  3,  3,  1)  (  3,  3,  1)
  0 -0.1134E-03  0  0.9988E-04  0  0.8309E-04  0  0.6678E-04  0  0.5396E-04
   (  3,  3,  1)  (  4, 43,  5)  (  4, 43,  5)  (  4, 43,  4)  (  4, 43,  4)
  0  0.4142E-04  0  0.3567E-04  0  0.3417E-04  0  0.2909E-04  0  0.2327E-04
   (  4, 43,  4)  (  4, 44,  2)  (  4, 44,  2)  (  4, 44,  2)  (  4, 44,  2)
  0  0.1862E-04  0  0.1728E-04  0  0.1355E-04  0  0.1072E-04  0  0.8010E-05
   (  4, 44,  2)  (  4, 44,  2)  (  4, 44,  2)  (  4, 44,  2)  (  4, 44,  2)
  0  0.7108E-05  0  0.5390E-05  0  0.4977E-05  0  0.3640E-05  0  0.2398E-05
   (  4, 44,  2)  (  4, 44,  2)  (  4, 44,  2)  (  4, 44,  2)  (  4, 44,  2)
  0  0.1707E-05  0  0.1492E-05  0  0.1135E-05  0  0.1057E-05  0  0.8249E-06
   (  4, 34, 35)  (  4, 34, 35)  (  3,  3,  2)  (  3,  3,  2)  (  3,  3,  2)
  1  0.7603E-06  0  0.7439E-06  0  0.6470E-06  0  0.6235E-06  0  0.5486E-06
   (  3,  3,  2)  (  3,  3,  2)  (  3,  3,  2)  (  3,  3,  2)  (  3,  3,  2)
  0  0.4602E-06  0  0.3534E-06  0  0.2713E-06  0  0.2391E-06  0  0.1905E-06
   (  3,  3,  2)  (  3,  3,  2)  (  3,  3,  2)  (  3,  3,  2)  (  3,  3,  2)
  0  0.1523E-06  0  0.1101E-06  0  0.1038E-06  0 -0.8019E-07  0 -0.6387E-07
   (  3,  3,  2)  (  3,  3,  2)  (  3,  3,  2)  (  3,  3,  1)  (  3,  3,  1)
  0 -0.5750E-07  0 -0.4223E-07  0 -0.3182E-07  0 -0.2351E-07  0 -0.1720E-07
   (  3,  3,  1)  (  3,  3,  1)  (  3,  3,  1)  (  3,  3,  1)  (  3,  3,  1)
  0 -0.1392E-07  0 -0.1251E-07  0 -0.1011E-07  0 -0.7918E-08  0 -0.6418E-08
   (  3,  3,  1)  (  3,  3,  1)  (  3, 41, 22)  (  3, 41, 22)  (  3, 41, 22)
  0 -0.5304E-08  0 -0.4712E-08  1 -0.4648E-08
   (  3, 41, 22)  (  3, 41, 22)  (  3, 41, 22)



 OUTPUT CONTROL FOR STRESS PERIOD   84   TIME STEP    1
    SAVE HEAD FOR ALL LAYERS
    SAVE DRAWDOWN FOR ALL LAYERS
    SAVE BUDGET
    PRINT BUDGET
 UBDSV1 SAVING "         STORAGE" ON UNIT   9 AT TIME STEP  1, STRESS PERIOD  84
 UBDSV2 SAVING "   CONSTANT HEAD" ON UNIT   9 AT TIME STEP  1, STRESS PERIOD  84
 UBDSV1 SAVING "FLOW RIGHT FACE " ON UNIT   9 AT TIME STEP  1, STRESS PERIOD  84
 UBDSV1 SAVING "FLOW FRONT FACE " ON UNIT   9 AT TIME STEP  1, STRESS PERIOD  84
 UBDSV1 SAVING "FLOW LOWER FACE " ON UNIT   9 AT TIME STEP  1, STRESS PERIOD  84
 UBDSV3 SAVING "        RECHARGE" ON UNIT   9 AT TIME STEP  1, STRESS PERIOD  84

 HEAD WILL BE SAVED ON UNIT   37 AT END OF TIME STEP    1, STRESS PERIOD   84

 DRAWDOWN WILL BE SAVED ON UNIT   38 AT END OF TIME STEP    1, STRESS PERIOD   84
1
  VOLUMETRIC BUDGET FOR ENTIRE MODEL AT END OF TIME STEP    1, STRESS PERIOD  84
  ------------------------------------------------------------------------------

     CUMULATIVE VOLUMES      L**3       RATES FOR THIS TIME STEP      L**3/T
     ------------------                 ------------------------

           IN:                                      IN:
           ---                                      ---
             STORAGE =       11685.4111               STORAGE =           0.0000
       CONSTANT HEAD =       22964.4805         CONSTANT HEAD =       1.1404E-03
            RECHARGE =        1005.9278              RECHARGE =       1.0213E-04

            TOTAL IN =       35655.8203              TOTAL IN =       1.2425E-03

          OUT:                                     OUT:
          ----                                     ----
             STORAGE =       10456.5967               STORAGE =       1.1904E-03
       CONSTANT HEAD =       25200.1875         CONSTANT HEAD =       5.2146E-05
            RECHARGE =           0.0000              RECHARGE =           0.0000

           TOTAL OUT =       35656.7852             TOTAL OUT =       1.2426E-03

            IN - OUT =          -0.9648              IN - OUT =      -3.6787E-08

 PERCENT DISCREPANCY =          -0.00     PERCENT DISCREPANCY =          -0.00






         TIME SUMMARY AT END OF TIME STEP    1 IN STRESS PERIOD   84
                    SECONDS     MINUTES      HOURS       DAYS        YEARS
                    -----------------------------------------------------------
   TIME STEP LENGTH  86400.      1440.0      24.000      1.0000     2.73785E-03
 STRESS PERIOD TIME  86400.      1440.0      24.000      1.0000     2.73785E-03
         TOTAL TIME 9.84960E+06 1.64160E+05  2736.0      114.00     0.31211    
1
1
                            STRESS PERIOD NO.   85, LENGTH =   86400.00    
                            -----------------------------------------------

                              NUMBER OF TIME STEPS =     1

                               MULTIPLIER FOR DELT =     1.000

                            INITIAL TIME STEP SIZE =   86400.00    

 REUSING RECH FROM LAST STRESS PERIOD

 CHD NO.   LAYER   ROW   COL    START HEAD        END HEAD         IFACE           
 ----------------------------------------------------------------------------------
      1      4      3      1       110.4           110.4           0.000    
      2      5      3      1       110.4           110.4           0.000    
      3      4      3      2       110.4           110.4           0.000    
      4      5      3      2       110.4           110.4           0.000    
      5      4      3      3       110.4           110.4           0.000    
      6      5      3      3       110.4           110.4           0.000    
      7      4      3      4       110.4           110.4           0.000    
      8      5      3      4       110.4           110.4           0.000    
      9      4      3      5       110.4           110.4           0.000    
     10      5      3      5       110.4           110.4           0.000    
     11      4      3      6       110.4           110.4           0.000    
     12      5      3      6       110.4           110.4           0.000    
     13      4      3      7       110.4           110.4           0.000    
     14      5      3      7       110.4           110.4           0.000    
     15      4      3      8       110.4           110.4           0.000    
     16      5      3      8       110.4           110.4           0.000    
     17      4      2      8       110.4           110.4           0.000    
     18      5      2      8       110.4           110.4           0.000    
     19      4      2      9       110.4           110.4           0.000    
     20      5      2      9       110.4           110.4           0.000    
     21      4      2     10       110.4           110.4           0.000    
     22      5      2     10       110.4           110.4           0.000    
     23      4      2     11       110.4           110.4           0.000    
     24      5      2     11       110.4           110.4           0.000    
     25      4      2     12       110.4           110.4           0.000    
     26      5      2     12       110.4           110.4           0.000    
     27      4      2     13       110.4           110.4           0.000    
     28      5      2     13       110.4           110.4           0.000    
     29      4      2     14       110.4           110.4           0.000    
     30      5      2     14       110.4           110.4           0.000    
     31      4      2     15       110.4           110.4           0.000    
     32      5      2     15       110.4           110.4           0.000    
     33      4      2     16       110.4           110.4           0.000    
     34      5      2     16       110.4           110.4           0.000    
     35      4      2     17       110.4           110.4           0.000    
     36      5      2     17       110.4           110.4           0.000    
     37      4      2     18       110.4           110.4           0.000    
     38      5      2     18       110.4           110.4           0.000    
     39      4      2     19       110.4           110.4           0.000    
     40      5      2     19       110.4           110.4           0.000    
     41      4      2     20       110.4           110.4           0.000    
     42      5      2     20       110.4           110.4           0.000    
     43      4      2     21       110.4           110.4           0.000    
     44      5      2     21       110.4           110.4           0.000    
     45      4      2     22       110.4           110.4           0.000    
     46      5      2     22       110.4           110.4           0.000    
     47      4      2     23       110.4           110.4           0.000    
     48      5      2     23       110.4           110.4           0.000    
     49      4      2     24       110.4           110.4           0.000    
     50      5      2     24       110.4           110.4           0.000    
     51      4      2     25       110.4           110.4           0.000    
     52      5      2     25       110.4           110.4           0.000    
     53      4      2     26       110.4           110.4           0.000    
     54      5      2     26       110.4           110.4           0.000    
     55      4      1     26       110.4           110.4           0.000    
     56      5      1     26       110.4           110.4           0.000    
     57      4      1     27       110.4           110.4           0.000    
     58      5      1     27       110.4           110.4           0.000    
     59      4      1     28       110.4           110.4           0.000    
     60      5      1     28       110.4           110.4           0.000    
     61      4      1     29       110.4           110.4           0.000    
     62      5      1     29       110.4           110.4           0.000    
     63      4      1     30       110.4           110.4           0.000    
     64      5      1     30       110.4           110.4           0.000    
     65      4      1     31       110.4           110.4           0.000    
     66      5      1     31       110.4           110.4           0.000    
     67      4      1     32       110.4           110.4           0.000    
     68      5      1     32       110.4           110.4           0.000    
     69      4      1     33       110.4           110.4           0.000    
     70      5      1     33       110.4           110.4           0.000    
     71      4      1     34       110.4           110.4           0.000    
     72      5      1     34       110.4           110.4           0.000    
     73      4      1     35       110.4           110.4           0.000    
     74      5      1     35       110.4           110.4           0.000    
     75      4     36     35       110.5           110.4           0.000    
     76      5     36     35       110.5           110.4           0.000    
     77      4     35     34       110.5           110.4           0.000    
     78      5     35     34       110.5           110.4           0.000    
     79      4     36     34       110.5           110.4           0.000    
     80      5     36     34       110.5           110.4           0.000    
     81      4     36     33       110.5           110.4           0.000    
     82      5     36     33       110.5           110.4           0.000    
     83      4     36     32       110.5           110.4           0.000    
     84      5     36     32       110.5           110.4           0.000    
     85      4     37     32       110.5           110.4           0.000    
     86      5     37     32       110.5           110.4           0.000    
     87      4     37     31       110.5           110.4           0.000    
     88      5     37     31       110.5           110.4           0.000    
     89      4     38     31       110.5           110.4           0.000    
     90      5     38     31       110.5           110.4           0.000    
     91      4     38     30       110.5           110.4           0.000    
     92      5     38     30       110.5           110.4           0.000    
     93      4     39     30       110.5           110.4           0.000    
     94      5     39     30       110.5           110.4           0.000    
     95      4     39     29       110.5           110.4           0.000    
     96      5     39     29       110.5           110.4           0.000    
     97      4     40     29       110.5           110.4           0.000    
     98      5     40     29       110.5           110.4           0.000    
     99      4     40     28       110.5           110.4           0.000    
    100      5     40     28       110.5           110.4           0.000    
    101      4     40     27       110.5           110.4           0.000    
    102      5     40     27       110.5           110.4           0.000    
    103      4     41     27       110.5           110.4           0.000    
    104      5     41     27       110.5           110.4           0.000    
    105      4     41     26       110.5           110.4           0.000    
    106      5     41     26       110.5           110.4           0.000    
    107      4     41     25       110.5           110.4           0.000    
    108      5     41     25       110.5           110.4           0.000    
    109      4     41     24       110.5           110.4           0.000    
    110      5     41     24       110.5           110.4           0.000    
    111      4     41     23       110.5           110.4           0.000    
    112      5     41     23       110.5           110.4           0.000    
    113      4     41     22       110.5           110.4           0.000    
    114      5     41     22       110.5           110.4           0.000    
    115      4     42     22       110.5           110.4           0.000    
    116      5     42     22       110.5           110.4           0.000    
    117      4     42     21       110.5           110.4           0.000    
    118      5     42     21       110.5           110.4           0.000    
    119      4     42     20       110.5           110.4           0.000    
    120      5     42     20       110.5           110.4           0.000    
    121      4     42     19       110.5           110.4           0.000    
    122      5     42     19       110.5           110.4           0.000    
    123      4     43     18       110.5           110.4           0.000    
    124      5     43     18       110.5           110.4           0.000    
    125      4     42     18       110.5           110.4           0.000    
    126      5     42     18       110.5           110.4           0.000    
    127      4     42     17       110.5           110.4           0.000    
    128      5     42     17       110.5           110.4           0.000    
    129      4     42     16       110.5           110.4           0.000    
    130      5     42     16       110.5           110.4           0.000    
    131      4     42     15       110.5           110.4           0.000    
    132      5     42     15       110.5           110.4           0.000    
    133      4     43     15       110.5           110.4           0.000    
    134      5     43     15       110.5           110.4           0.000    
    135      4     43     14       110.5           110.4           0.000    
    136      5     43     14       110.5           110.4           0.000    
    137      4     43     13       110.5           110.4           0.000    
    138      5     43     13       110.5           110.4           0.000    
    139      4     43     12       110.5           110.4           0.000    
    140      5     43     12       110.5           110.4           0.000    
    141      4     43     11       110.5           110.4           0.000    
    142      5     43     11       110.5           110.4           0.000    
    143      4     43     10       110.5           110.4           0.000    
    144      5     43     10       110.5           110.4           0.000    
    145      4     44     10       110.5           110.4           0.000    
    146      5     44     10       110.5           110.4           0.000    
    147      4     44      9       110.5           110.4           0.000    
    148      5     44      9       110.5           110.4           0.000    
    149      4     44      8       110.5           110.4           0.000    
    150      5     44      8       110.5           110.4           0.000    
    151      4     44      7       110.5           110.4           0.000    
    152      5     44      7       110.5           110.4           0.000    
    153      4     44      6       110.5           110.4           0.000    
    154      5     44      6       110.5           110.4           0.000    
    155      4     44      5       110.5           110.4           0.000    
    156      5     44      5       110.5           110.4           0.000    
    157      4     44      4       110.5           110.4           0.000    
    158      5     44      4       110.5           110.4           0.000    
    159      4     44      3       110.5           110.4           0.000    
    160      5     44      3       110.5           110.4           0.000    
    161      4     45      3       110.5           110.4           0.000    
    162      5     45      3       110.5           110.4           0.000    
    163      4     45      2       110.5           110.4           0.000    
    164      5     45      2       110.5           110.4           0.000    
    165      4     45      1       110.5           110.4           0.000    
    166      5     45      1       110.5           110.4           0.000    


    166 TIME-VARIANT SPECIFIED-HEAD CELLS

 SOLVING FOR HEAD 


     3 CALLS TO PCG ROUTINE FOR TIME STEP   1 IN STRESS PERIOD   85
    61 TOTAL ITERATIONS

 MAXIMUM HEAD CHANGE FOR EACH ITERATION (1 INDICATES THE FIRST INNER ITERATION):

    HEAD CHANGE    HEAD CHANGE    HEAD CHANGE    HEAD CHANGE    HEAD CHANGE 
   LAYER,ROW,COL  LAYER,ROW,COL  LAYER,ROW,COL  LAYER,ROW,COL  LAYER,ROW,COL
 ---------------------------------------------------------------------------
  1 -0.1611      0  0.9200E-01  0 -0.5452E-01  0  0.4524E-01  0 -0.6549E-01
   (  5, 43,  5)  (  5, 35,  1)  (  5, 31,  2)  (  5, 41,  2)  (  5, 37,  1)
  0  0.3154E-01  0 -0.3939E-01  0  0.4387E-01  0  0.2469E-01  0  0.1964E-01
   (  5, 35,  2)  (  5, 40,  1)  (  5, 37,  1)  (  5, 37,  6)  (  5, 40,  2)
  0  0.1612E-01  0 -0.1296E-01  0  0.9080E-02  0  0.9429E-02  0 -0.9367E-02
   (  5, 35,  9)  (  5, 33,  9)  (  5, 29,  3)  (  5, 31,  9)  (  5, 36,  8)
  0  0.5699E-02  0  0.3653E-02  0  0.3587E-02  0  0.3208E-02  0  0.2482E-02
   (  5, 34,  9)  (  5, 36,  4)  (  5, 15,  1)  (  5, 30, 10)  (  5, 36,  7)
  0  0.1850E-02  0 -0.1386E-02  0  0.1937E-02  0 -0.1805E-02  0  0.1268E-02
   (  5, 37,  3)  (  5, 35,  4)  (  5, 32,  4)  (  5, 13,  1)  (  5, 13,  1)
  0  0.9613E-03  0 -0.6281E-03  0  0.4600E-03  0 -0.3174E-03  0  0.1629E-03
   (  5, 37,  1)  (  5, 39,  2)  (  5, 12,  2)  (  5, 12,  1)  (  5, 27,  3)
  1 -0.1311E-03  0  0.2421E-03  0 -0.1325E-03  0  0.1529E-03  0  0.9831E-04
   (  5, 30,  3)  (  5, 34,  1)  (  5, 35,  3)  (  5, 32,  4)  (  5, 39,  2)
  0 -0.9478E-04  0 -0.8876E-04  0  0.9540E-04  0 -0.1059E-03  0  0.4765E-04
   (  5, 37,  1)  (  5, 39,  5)  (  5, 37,  1)  (  5, 39,  1)  (  5, 37,  1)
  0 -0.4392E-04  0  0.4436E-04  0  0.3457E-04  0 -0.2560E-04  0 -0.1962E-04
   (  5, 32,  4)  (  5, 35,  4)  (  5, 40,  4)  (  5, 34,  8)  (  5, 34,  3)
  0  0.2556E-04  0 -0.1499E-04  0  0.1251E-04  0 -0.1017E-04  0  0.1054E-04
   (  5, 39,  1)  (  5, 32,  9)  (  5, 37,  4)  (  5, 29,  3)  (  5, 33,  3)
  0 -0.7482E-05  0  0.5980E-05  0  0.4175E-05  0 -0.5802E-05  0 -0.3432E-05
   (  5, 36,  9)  (  5, 39, 10)  (  5, 35,  1)  (  5, 38,  1)  (  5, 34,  1)
  0  0.1803E-05  0 -0.2305E-05  0  0.1445E-05  0 -0.1457E-05  0  0.1454E-05
   (  5, 35,  3)  (  5, 42,  6)  (  5, 34,  6)  (  5, 28,  2)  (  5, 43,  6)
  1 -0.9874E-06
   (  5, 38,  2)

 MAXIMUM RESIDUAL FOR EACH ITERATION (1 INDICATES THE FIRST INNER ITERATION):

    RESIDUAL       RESIDUAL       RESIDUAL       RESIDUAL       RESIDUAL    
   LAYER,ROW,COL  LAYER,ROW,COL  LAYER,ROW,COL  LAYER,ROW,COL  LAYER,ROW,COL
 ---------------------------------------------------------------------------
  1  0.8661E-03  0  0.6679E-03  0  0.5670E-03  0  0.4730E-03  0  0.3951E-03
   (  4, 44,  2)  (  4, 44,  2)  (  4, 44,  2)  (  4, 35, 35)  (  4, 35, 35)
  0  0.3414E-03  0  0.2900E-03  0  0.2318E-03  0  0.1871E-03  0  0.1444E-03
   (  3, 40, 27)  (  3, 40, 27)  (  3, 40, 27)  (  3, 40, 27)  (  3, 40, 27)
  0  0.1113E-03  0  0.9284E-04  0 -0.8241E-04  0 -0.6670E-04  0 -0.5197E-04
   (  4, 35, 35)  (  4, 35, 35)  (  4, 43,  4)  (  3, 35, 35)  (  3, 35, 35)
  0 -0.4192E-04  0 -0.3816E-04  0 -0.2928E-04  0 -0.2442E-04  0 -0.2055E-04
   (  3, 35, 35)  (  3, 35, 35)  (  4, 44,  2)  (  4, 34, 35)  (  4, 34, 35)
  0 -0.1908E-04  0 -0.1754E-04  0 -0.1570E-04  0 -0.1262E-04  0 -0.1023E-04
   (  4, 34, 35)  (  4, 34, 35)  (  4, 34, 35)  (  4, 34, 35)  (  4, 34, 35)
  0 -0.8353E-05  0 -0.7427E-05  0 -0.5573E-05  0 -0.4048E-05  0 -0.3840E-05
   (  4, 34, 35)  (  4, 34, 35)  (  4, 34, 35)  (  4, 34, 35)  (  4, 34, 35)
  1 -0.3810E-05  0 -0.3602E-05  0 -0.3508E-05  0 -0.2901E-05  0 -0.2329E-05
   (  4, 34, 35)  (  4, 34, 35)  (  4, 34, 35)  (  4, 34, 35)  (  4, 34, 35)
  0 -0.1987E-05  0 -0.1569E-05  0 -0.1365E-05  0 -0.1006E-05  0 -0.8307E-06
   (  4, 34, 35)  (  4, 34, 35)  (  4, 34, 35)  (  4, 34, 35)  (  4, 34, 35)
  0 -0.7410E-06  0 -0.5741E-06  0  0.4203E-06  0  0.3515E-06  0  0.3181E-06
   (  4, 34, 35)  (  4, 34, 35)  (  4, 35, 35)  (  4, 35, 35)  (  4, 35, 35)
  0  0.2561E-06  0  0.1915E-06  0  0.1499E-06  0  0.1289E-06  0  0.1089E-06
   (  4, 35, 35)  (  4, 35, 35)  (  4, 35, 35)  (  4, 35, 35)  (  4, 35, 35)
  0  0.8165E-07  0  0.5971E-07  0  0.5067E-07  0  0.3900E-07  0  0.2804E-07
   (  4, 35, 35)  (  4, 35, 35)  (  4, 35, 35)  (  4, 35, 35)  (  4, 35, 35)
  0  0.2571E-07  0  0.1858E-07  0  0.1609E-07  0  0.1370E-07  0  0.9659E-08
   (  4, 35, 35)  (  4, 35, 35)  (  4, 35, 35)  (  4, 35, 35)  (  3, 36, 35)
  1  0.9497E-08
   (  3, 36, 35)



 OUTPUT CONTROL FOR STRESS PERIOD   85   TIME STEP    1
    SAVE HEAD FOR ALL LAYERS
    SAVE DRAWDOWN FOR ALL LAYERS
    SAVE BUDGET
    PRINT BUDGET
 UBDSV1 SAVING "         STORAGE" ON UNIT   9 AT TIME STEP  1, STRESS PERIOD  85
 UBDSV2 SAVING "   CONSTANT HEAD" ON UNIT   9 AT TIME STEP  1, STRESS PERIOD  85
 UBDSV1 SAVING "FLOW RIGHT FACE " ON UNIT   9 AT TIME STEP  1, STRESS PERIOD  85
 UBDSV1 SAVING "FLOW FRONT FACE " ON UNIT   9 AT TIME STEP  1, STRESS PERIOD  85
 UBDSV1 SAVING "FLOW LOWER FACE " ON UNIT   9 AT TIME STEP  1, STRESS PERIOD  85
 UBDSV3 SAVING "        RECHARGE" ON UNIT   9 AT TIME STEP  1, STRESS PERIOD  85

 HEAD WILL BE SAVED ON UNIT   37 AT END OF TIME STEP    1, STRESS PERIOD   85

 DRAWDOWN WILL BE SAVED ON UNIT   38 AT END OF TIME STEP    1, STRESS PERIOD   85
1
  VOLUMETRIC BUDGET FOR ENTIRE MODEL AT END OF TIME STEP    1, STRESS PERIOD  85
  ------------------------------------------------------------------------------

     CUMULATIVE VOLUMES      L**3       RATES FOR THIS TIME STEP      L**3/T
     ------------------                 ------------------------

           IN:                                      IN:
           ---                                      ---
             STORAGE =       11753.9932               STORAGE =       7.9377E-04
       CONSTANT HEAD =       22966.5430         CONSTANT HEAD =       2.3869E-05
            RECHARGE =        1014.7517              RECHARGE =       1.0213E-04

            TOTAL IN =       35735.2852              TOTAL IN =       9.1977E-04

          OUT:                                     OUT:
          ----                                     ----
             STORAGE =       10456.5967               STORAGE =           0.0000
       CONSTANT HEAD =       25279.6797         CONSTANT HEAD =       9.2005E-04
            RECHARGE =           0.0000              RECHARGE =           0.0000

           TOTAL OUT =       35736.2773             TOTAL OUT =       9.2005E-04

            IN - OUT =          -0.9922              IN - OUT =      -2.8301E-07

 PERCENT DISCREPANCY =          -0.00     PERCENT DISCREPANCY =          -0.03






         TIME SUMMARY AT END OF TIME STEP    1 IN STRESS PERIOD   85
                    SECONDS     MINUTES      HOURS       DAYS        YEARS
                    -----------------------------------------------------------
   TIME STEP LENGTH  86400.      1440.0      24.000      1.0000     2.73785E-03
 STRESS PERIOD TIME  86400.      1440.0      24.000      1.0000     2.73785E-03
         TOTAL TIME 9.93600E+06 1.65600E+05  2760.0      115.00     0.31485    
1
1
                            STRESS PERIOD NO.   86, LENGTH =   86400.00    
                            -----------------------------------------------

                              NUMBER OF TIME STEPS =     1

                               MULTIPLIER FOR DELT =     1.000

                            INITIAL TIME STEP SIZE =   86400.00    

 REUSING RECH FROM LAST STRESS PERIOD

 CHD NO.   LAYER   ROW   COL    START HEAD        END HEAD         IFACE           
 ----------------------------------------------------------------------------------
      1      4      3      1       110.4           110.4           0.000    
      2      5      3      1       110.4           110.4           0.000    
      3      4      3      2       110.4           110.4           0.000    
      4      5      3      2       110.4           110.4           0.000    
      5      4      3      3       110.4           110.4           0.000    
      6      5      3      3       110.4           110.4           0.000    
      7      4      3      4       110.4           110.4           0.000    
      8      5      3      4       110.4           110.4           0.000    
      9      4      3      5       110.4           110.4           0.000    
     10      5      3      5       110.4           110.4           0.000    
     11      4      3      6       110.4           110.4           0.000    
     12      5      3      6       110.4           110.4           0.000    
     13      4      3      7       110.4           110.4           0.000    
     14      5      3      7       110.4           110.4           0.000    
     15      4      3      8       110.4           110.4           0.000    
     16      5      3      8       110.4           110.4           0.000    
     17      4      2      8       110.4           110.4           0.000    
     18      5      2      8       110.4           110.4           0.000    
     19      4      2      9       110.4           110.4           0.000    
     20      5      2      9       110.4           110.4           0.000    
     21      4      2     10       110.4           110.4           0.000    
     22      5      2     10       110.4           110.4           0.000    
     23      4      2     11       110.4           110.4           0.000    
     24      5      2     11       110.4           110.4           0.000    
     25      4      2     12       110.4           110.4           0.000    
     26      5      2     12       110.4           110.4           0.000    
     27      4      2     13       110.4           110.4           0.000    
     28      5      2     13       110.4           110.4           0.000    
     29      4      2     14       110.4           110.4           0.000    
     30      5      2     14       110.4           110.4           0.000    
     31      4      2     15       110.4           110.4           0.000    
     32      5      2     15       110.4           110.4           0.000    
     33      4      2     16       110.4           110.4           0.000    
     34      5      2     16       110.4           110.4           0.000    
     35      4      2     17       110.4           110.4           0.000    
     36      5      2     17       110.4           110.4           0.000    
     37      4      2     18       110.4           110.4           0.000    
     38      5      2     18       110.4           110.4           0.000    
     39      4      2     19       110.4           110.4           0.000    
     40      5      2     19       110.4           110.4           0.000    
     41      4      2     20       110.4           110.4           0.000    
     42      5      2     20       110.4           110.4           0.000    
     43      4      2     21       110.4           110.4           0.000    
     44      5      2     21       110.4           110.4           0.000    
     45      4      2     22       110.4           110.4           0.000    
     46      5      2     22       110.4           110.4           0.000    
     47      4      2     23       110.4           110.4           0.000    
     48      5      2     23       110.4           110.4           0.000    
     49      4      2     24       110.4           110.4           0.000    
     50      5      2     24       110.4           110.4           0.000    
     51      4      2     25       110.4           110.4           0.000    
     52      5      2     25       110.4           110.4           0.000    
     53      4      2     26       110.4           110.4           0.000    
     54      5      2     26       110.4           110.4           0.000    
     55      4      1     26       110.4           110.4           0.000    
     56      5      1     26       110.4           110.4           0.000    
     57      4      1     27       110.4           110.4           0.000    
     58      5      1     27       110.4           110.4           0.000    
     59      4      1     28       110.4           110.4           0.000    
     60      5      1     28       110.4           110.4           0.000    
     61      4      1     29       110.4           110.4           0.000    
     62      5      1     29       110.4           110.4           0.000    
     63      4      1     30       110.4           110.4           0.000    
     64      5      1     30       110.4           110.4           0.000    
     65      4      1     31       110.4           110.4           0.000    
     66      5      1     31       110.4           110.4           0.000    
     67      4      1     32       110.4           110.4           0.000    
     68      5      1     32       110.4           110.4           0.000    
     69      4      1     33       110.4           110.4           0.000    
     70      5      1     33       110.4           110.4           0.000    
     71      4      1     34       110.4           110.4           0.000    
     72      5      1     34       110.4           110.4           0.000    
     73      4      1     35       110.4           110.4           0.000    
     74      5      1     35       110.4           110.4           0.000    
     75      4     36     35       110.4           110.4           0.000    
     76      5     36     35       110.4           110.4           0.000    
     77      4     35     34       110.4           110.4           0.000    
     78      5     35     34       110.4           110.4           0.000    
     79      4     36     34       110.4           110.4           0.000    
     80      5     36     34       110.4           110.4           0.000    
     81      4     36     33       110.4           110.4           0.000    
     82      5     36     33       110.4           110.4           0.000    
     83      4     36     32       110.4           110.4           0.000    
     84      5     36     32       110.4           110.4           0.000    
     85      4     37     32       110.4           110.4           0.000    
     86      5     37     32       110.4           110.4           0.000    
     87      4     37     31       110.4           110.4           0.000    
     88      5     37     31       110.4           110.4           0.000    
     89      4     38     31       110.4           110.4           0.000    
     90      5     38     31       110.4           110.4           0.000    
     91      4     38     30       110.4           110.4           0.000    
     92      5     38     30       110.4           110.4           0.000    
     93      4     39     30       110.4           110.4           0.000    
     94      5     39     30       110.4           110.4           0.000    
     95      4     39     29       110.4           110.4           0.000    
     96      5     39     29       110.4           110.4           0.000    
     97      4     40     29       110.4           110.4           0.000    
     98      5     40     29       110.4           110.4           0.000    
     99      4     40     28       110.4           110.4           0.000    
    100      5     40     28       110.4           110.4           0.000    
    101      4     40     27       110.4           110.4           0.000    
    102      5     40     27       110.4           110.4           0.000    
    103      4     41     27       110.4           110.4           0.000    
    104      5     41     27       110.4           110.4           0.000    
    105      4     41     26       110.4           110.4           0.000    
    106      5     41     26       110.4           110.4           0.000    
    107      4     41     25       110.4           110.4           0.000    
    108      5     41     25       110.4           110.4           0.000    
    109      4     41     24       110.4           110.4           0.000    
    110      5     41     24       110.4           110.4           0.000    
    111      4     41     23       110.4           110.4           0.000    
    112      5     41     23       110.4           110.4           0.000    
    113      4     41     22       110.4           110.4           0.000    
    114      5     41     22       110.4           110.4           0.000    
    115      4     42     22       110.4           110.4           0.000    
    116      5     42     22       110.4           110.4           0.000    
    117      4     42     21       110.4           110.4           0.000    
    118      5     42     21       110.4           110.4           0.000    
    119      4     42     20       110.4           110.4           0.000    
    120      5     42     20       110.4           110.4           0.000    
    121      4     42     19       110.4           110.4           0.000    
    122      5     42     19       110.4           110.4           0.000    
    123      4     43     18       110.4           110.4           0.000    
    124      5     43     18       110.4           110.4           0.000    
    125      4     42     18       110.4           110.4           0.000    
    126      5     42     18       110.4           110.4           0.000    
    127      4     42     17       110.4           110.4           0.000    
    128      5     42     17       110.4           110.4           0.000    
    129      4     42     16       110.4           110.4           0.000    
    130      5     42     16       110.4           110.4           0.000    
    131      4     42     15       110.4           110.4           0.000    
    132      5     42     15       110.4           110.4           0.000    
    133      4     43     15       110.4           110.4           0.000    
    134      5     43     15       110.4           110.4           0.000    
    135      4     43     14       110.4           110.4           0.000    
    136      5     43     14       110.4           110.4           0.000    
    137      4     43     13       110.4           110.4           0.000    
    138      5     43     13       110.4           110.4           0.000    
    139      4     43     12       110.4           110.4           0.000    
    140      5     43     12       110.4           110.4           0.000    
    141      4     43     11       110.4           110.4           0.000    
    142      5     43     11       110.4           110.4           0.000    
    143      4     43     10       110.4           110.4           0.000    
    144      5     43     10       110.4           110.4           0.000    
    145      4     44     10       110.4           110.4           0.000    
    146      5     44     10       110.4           110.4           0.000    
    147      4     44      9       110.4           110.4           0.000    
    148      5     44      9       110.4           110.4           0.000    
    149      4     44      8       110.4           110.4           0.000    
    150      5     44      8       110.4           110.4           0.000    
    151      4     44      7       110.4           110.4           0.000    
    152      5     44      7       110.4           110.4           0.000    
    153      4     44      6       110.4           110.4           0.000    
    154      5     44      6       110.4           110.4           0.000    
    155      4     44      5       110.4           110.4           0.000    
    156      5     44      5       110.4           110.4           0.000    
    157      4     44      4       110.4           110.4           0.000    
    158      5     44      4       110.4           110.4           0.000    
    159      4     44      3       110.4           110.4           0.000    
    160      5     44      3       110.4           110.4           0.000    
    161      4     45      3       110.4           110.4           0.000    
    162      5     45      3       110.4           110.4           0.000    
    163      4     45      2       110.4           110.4           0.000    
    164      5     45      2       110.4           110.4           0.000    
    165      4     45      1       110.4           110.4           0.000    
    166      5     45      1       110.4           110.4           0.000    


    166 TIME-VARIANT SPECIFIED-HEAD CELLS

 SOLVING FOR HEAD 


     3 CALLS TO PCG ROUTINE FOR TIME STEP   1 IN STRESS PERIOD   86
    59 TOTAL ITERATIONS

 MAXIMUM HEAD CHANGE FOR EACH ITERATION (1 INDICATES THE FIRST INNER ITERATION):

    HEAD CHANGE    HEAD CHANGE    HEAD CHANGE    HEAD CHANGE    HEAD CHANGE 
   LAYER,ROW,COL  LAYER,ROW,COL  LAYER,ROW,COL  LAYER,ROW,COL  LAYER,ROW,COL
 ---------------------------------------------------------------------------
  1 -0.1121      0  0.6041E-01  0 -0.3538E-01  0  0.3121E-01  0 -0.4006E-01
   (  5, 43,  5)  (  5, 35,  1)  (  5, 30,  2)  (  5, 41,  2)  (  5, 37,  1)
  0 -0.2231E-01  0 -0.2616E-01  0  0.2879E-01  0  0.1596E-01  0  0.1326E-01
   (  5, 39,  1)  (  5, 40,  1)  (  5, 37,  1)  (  5, 37,  6)  (  5, 40,  2)
  0  0.1119E-01  0  0.6085E-02  0 -0.8796E-02  0  0.7088E-02  0 -0.5301E-02
   (  5, 36, 10)  (  5, 28,  2)  (  5, 33,  9)  (  5, 30,  9)  (  5, 36,  8)
  0  0.2589E-02  0 -0.3041E-02  0  0.2731E-02  0 -0.1855E-02  0  0.2012E-02
   (  5, 35,  4)  (  5, 34,  1)  (  5, 15,  1)  (  5, 38,  7)  (  5, 38,  4)
  0 -0.1426E-02  0  0.1123E-02  0 -0.8712E-03  0 -0.1139E-02  0  0.8140E-03
   (  5, 37,  1)  (  5, 32,  4)  (  5, 34,  7)  (  5, 13,  1)  (  5, 13,  1)
  0 -0.4439E-03  0  0.4097E-03  0 -0.3429E-03  0  0.2781E-03  0 -0.2021E-03
   (  5, 39,  1)  (  5, 37,  1)  (  5, 35,  1)  (  5, 35,  3)  (  5, 35,  1)
  1  0.1416E-03  0 -0.9827E-04  0 -0.1350E-03  0 -0.6372E-04  0 -0.1374E-03
   (  5, 34,  1)  (  5, 30,  2)  (  5, 35,  3)  (  5, 27,  4)  (  5, 37,  1)
  0  0.9681E-04  0 -0.7085E-04  0 -0.4019E-04  0 -0.6048E-04  0  0.3439E-04
   (  5, 39,  2)  (  5, 39,  5)  (  5, 32,  7)  (  5, 40,  1)  (  5, 37,  1)
  0  0.3449E-04  0 -0.1601E-04  0  0.2156E-04  0 -0.2086E-04  0  0.1438E-04
   (  5, 34,  3)  (  5, 29,  1)  (  5, 40,  4)  (  5, 39,  1)  (  5, 39,  1)
  0 -0.1119E-04  0  0.8262E-05  0 -0.7855E-05  0  0.6571E-05  0 -0.5764E-05
   (  5, 36,  1)  (  5, 37,  4)  (  5, 41,  1)  (  5, 39,  2)  (  5, 36,  9)
  0  0.2375E-05  0  0.3961E-05  0 -0.4115E-05  0 -0.2411E-05  0  0.2266E-05
   (  5, 29,  2)  (  5, 39, 10)  (  5, 38,  1)  (  5, 35,  6)  (  5, 40,  6)
  0 -0.1563E-05  0  0.1204E-05  0  0.8596E-06  1 -0.6753E-06
   (  5, 42,  6)  (  5, 37,  1)  (  5, 32,  1)  (  5, 35,  3)

 MAXIMUM RESIDUAL FOR EACH ITERATION (1 INDICATES THE FIRST INNER ITERATION):

    RESIDUAL       RESIDUAL       RESIDUAL       RESIDUAL       RESIDUAL    
   LAYER,ROW,COL  LAYER,ROW,COL  LAYER,ROW,COL  LAYER,ROW,COL  LAYER,ROW,COL
 ---------------------------------------------------------------------------
  1  0.5128E-03  0  0.3871E-03  0  0.3350E-03  0  0.3020E-03  0  0.2539E-03
   (  4, 44,  2)  (  4, 44,  2)  (  4, 35, 35)  (  4, 35, 35)  (  4, 35, 35)
  0  0.2133E-03  0  0.1774E-03  0  0.1397E-03  0  0.1109E-03  0  0.8419E-04
   (  4, 35, 35)  (  3, 40, 27)  (  3, 40, 27)  (  3, 40, 27)  (  3, 40, 27)
  0 -0.6923E-04  0 -0.6306E-04  0 -0.5512E-04  0 -0.4436E-04  0 -0.3427E-04
   (  3, 35, 35)  (  3, 35, 35)  (  3, 35, 35)  (  3, 35, 35)  (  4, 43,  4)
  0 -0.3176E-04  0 -0.2524E-04  0 -0.2018E-04  0 -0.1653E-04  0 -0.1321E-04
   (  4, 43,  4)  (  4, 43,  4)  (  4, 44,  2)  (  4, 44,  2)  (  4, 44,  2)
  0 -0.1179E-04  0 -0.1035E-04  0 -0.9607E-05  0 -0.7687E-05  0 -0.6123E-05
   (  4, 34, 35)  (  4, 34, 35)  (  4, 34, 35)  (  4, 34, 35)  (  4, 34, 35)
  0 -0.4774E-05  0 -0.4291E-05  0 -0.3597E-05  0 -0.3143E-05  0 -0.2214E-05
   (  4, 34, 35)  (  4, 34, 35)  (  4, 34, 35)  (  4, 34, 35)  (  4, 34, 35)
  1 -0.2112E-05  0 -0.2068E-05  0 -0.1752E-05  0 -0.1662E-05  0 -0.1428E-05
   (  4, 34, 35)  (  4, 34, 35)  (  4, 34, 35)  (  4, 34, 35)  (  4, 34, 35)
  0 -0.1164E-05  0 -0.9482E-06  0 -0.7985E-06  0 -0.5862E-06  0 -0.4518E-06
   (  4, 34, 35)  (  4, 34, 35)  (  4, 34, 35)  (  4, 34, 35)  (  4, 34, 35)
  0 -0.3445E-06  0 -0.3247E-06  0  0.2468E-06  0  0.1998E-06  0  0.1510E-06
   (  4, 34, 35)  (  4, 34, 35)  (  4, 35, 35)  (  4, 35, 35)  (  4, 35, 35)
  0  0.1151E-06  0  0.1047E-06  0  0.8087E-07  0  0.5941E-07  0  0.4516E-07
   (  4, 35, 35)  (  4, 35, 35)  (  4, 35, 35)  (  4, 35, 35)  (  4, 35, 35)
  0  0.4291E-07  0  0.3165E-07  0  0.2570E-07  0  0.2084E-07  0  0.1490E-07
   (  4, 35, 35)  (  4, 35, 35)  (  4, 35, 35)  (  4, 35, 35)  (  4, 35, 35)
  0  0.1111E-07  0  0.8727E-08  0  0.7299E-08  1  0.7232E-08
   (  4, 35, 35)  (  4, 35, 35)  (  3, 36, 35)  (  3, 36, 35)



 OUTPUT CONTROL FOR STRESS PERIOD   86   TIME STEP    1
    SAVE HEAD FOR ALL LAYERS
    SAVE DRAWDOWN FOR ALL LAYERS
    SAVE BUDGET
    PRINT BUDGET
 UBDSV1 SAVING "         STORAGE" ON UNIT   9 AT TIME STEP  1, STRESS PERIOD  86
 UBDSV2 SAVING "   CONSTANT HEAD" ON UNIT   9 AT TIME STEP  1, STRESS PERIOD  86
 UBDSV1 SAVING "FLOW RIGHT FACE " ON UNIT   9 AT TIME STEP  1, STRESS PERIOD  86
 UBDSV1 SAVING "FLOW FRONT FACE " ON UNIT   9 AT TIME STEP  1, STRESS PERIOD  86
 UBDSV1 SAVING "FLOW LOWER FACE " ON UNIT   9 AT TIME STEP  1, STRESS PERIOD  86
 UBDSV3 SAVING "        RECHARGE" ON UNIT   9 AT TIME STEP  1, STRESS PERIOD  86

 HEAD WILL BE SAVED ON UNIT   37 AT END OF TIME STEP    1, STRESS PERIOD   86

 DRAWDOWN WILL BE SAVED ON UNIT   38 AT END OF TIME STEP    1, STRESS PERIOD   86
1
  VOLUMETRIC BUDGET FOR ENTIRE MODEL AT END OF TIME STEP    1, STRESS PERIOD  86
  ------------------------------------------------------------------------------

     CUMULATIVE VOLUMES      L**3       RATES FOR THIS TIME STEP      L**3/T
     ------------------                 ------------------------

           IN:                                      IN:
           ---                                      ---
             STORAGE =       11840.3164               STORAGE =       9.9912E-04
       CONSTANT HEAD =       22966.6367         CONSTANT HEAD =       1.0819E-06
            RECHARGE =        1023.5756              RECHARGE =       1.0213E-04

            TOTAL IN =       35830.5273              TOTAL IN =       1.1023E-03

          OUT:                                     OUT:
          ----                                     ----
             STORAGE =       10456.5967               STORAGE =           0.0000
       CONSTANT HEAD =       25374.9414         CONSTANT HEAD =       1.1026E-03
            RECHARGE =           0.0000              RECHARGE =           0.0000

           TOTAL OUT =       35831.5391             TOTAL OUT =       1.1026E-03

            IN - OUT =          -1.0117              IN - OUT =      -2.2957E-07

 PERCENT DISCREPANCY =          -0.00     PERCENT DISCREPANCY =          -0.02






         TIME SUMMARY AT END OF TIME STEP    1 IN STRESS PERIOD   86
                    SECONDS     MINUTES      HOURS       DAYS        YEARS
                    -----------------------------------------------------------
   TIME STEP LENGTH  86400.      1440.0      24.000      1.0000     2.73785E-03
 STRESS PERIOD TIME  86400.      1440.0      24.000      1.0000     2.73785E-03
         TOTAL TIME 1.00224E+07 1.67040E+05  2784.0      116.00     0.31759    
1
1
                            STRESS PERIOD NO.   87, LENGTH =   259200.0    
                            -----------------------------------------------

                              NUMBER OF TIME STEPS =     3

                               MULTIPLIER FOR DELT =     1.000

                            INITIAL TIME STEP SIZE =   86400.00    

 REUSING RECH FROM LAST STRESS PERIOD

 CHD NO.   LAYER   ROW   COL    START HEAD        END HEAD         IFACE           
 ----------------------------------------------------------------------------------
      1      4      3      1       110.4           110.3           0.000    
      2      5      3      1       110.4           110.3           0.000    
      3      4      3      2       110.4           110.3           0.000    
      4      5      3      2       110.4           110.3           0.000    
      5      4      3      3       110.4           110.3           0.000    
      6      5      3      3       110.4           110.3           0.000    
      7      4      3      4       110.4           110.3           0.000    
      8      5      3      4       110.4           110.3           0.000    
      9      4      3      5       110.4           110.3           0.000    
     10      5      3      5       110.4           110.3           0.000    
     11      4      3      6       110.4           110.3           0.000    
     12      5      3      6       110.4           110.3           0.000    
     13      4      3      7       110.4           110.3           0.000    
     14      5      3      7       110.4           110.3           0.000    
     15      4      3      8       110.4           110.3           0.000    
     16      5      3      8       110.4           110.3           0.000    
     17      4      2      8       110.4           110.3           0.000    
     18      5      2      8       110.4           110.3           0.000    
     19      4      2      9       110.4           110.3           0.000    
     20      5      2      9       110.4           110.3           0.000    
     21      4      2     10       110.4           110.3           0.000    
     22      5      2     10       110.4           110.3           0.000    
     23      4      2     11       110.4           110.3           0.000    
     24      5      2     11       110.4           110.3           0.000    
     25      4      2     12       110.4           110.3           0.000    
     26      5      2     12       110.4           110.3           0.000    
     27      4      2     13       110.4           110.3           0.000    
     28      5      2     13       110.4           110.3           0.000    
     29      4      2     14       110.4           110.3           0.000    
     30      5      2     14       110.4           110.3           0.000    
     31      4      2     15       110.4           110.3           0.000    
     32      5      2     15       110.4           110.3           0.000    
     33      4      2     16       110.4           110.3           0.000    
     34      5      2     16       110.4           110.3           0.000    
     35      4      2     17       110.4           110.3           0.000    
     36      5      2     17       110.4           110.3           0.000    
     37      4      2     18       110.4           110.3           0.000    
     38      5      2     18       110.4           110.3           0.000    
     39      4      2     19       110.4           110.3           0.000    
     40      5      2     19       110.4           110.3           0.000    
     41      4      2     20       110.4           110.3           0.000    
     42      5      2     20       110.4           110.3           0.000    
     43      4      2     21       110.4           110.3           0.000    
     44      5      2     21       110.4           110.3           0.000    
     45      4      2     22       110.4           110.3           0.000    
     46      5      2     22       110.4           110.3           0.000    
     47      4      2     23       110.4           110.3           0.000    
     48      5      2     23       110.4           110.3           0.000    
     49      4      2     24       110.4           110.3           0.000    
     50      5      2     24       110.4           110.3           0.000    
     51      4      2     25       110.4           110.3           0.000    
     52      5      2     25       110.4           110.3           0.000    
     53      4      2     26       110.4           110.3           0.000    
     54      5      2     26       110.4           110.3           0.000    
     55      4      1     26       110.4           110.3           0.000    
     56      5      1     26       110.4           110.3           0.000    
     57      4      1     27       110.4           110.3           0.000    
     58      5      1     27       110.4           110.3           0.000    
     59      4      1     28       110.4           110.3           0.000    
     60      5      1     28       110.4           110.3           0.000    
     61      4      1     29       110.4           110.3           0.000    
     62      5      1     29       110.4           110.3           0.000    
     63      4      1     30       110.4           110.3           0.000    
     64      5      1     30       110.4           110.3           0.000    
     65      4      1     31       110.4           110.3           0.000    
     66      5      1     31       110.4           110.3           0.000    
     67      4      1     32       110.4           110.3           0.000    
     68      5      1     32       110.4           110.3           0.000    
     69      4      1     33       110.4           110.3           0.000    
     70      5      1     33       110.4           110.3           0.000    
     71      4      1     34       110.4           110.3           0.000    
     72      5      1     34       110.4           110.3           0.000    
     73      4      1     35       110.4           110.3           0.000    
     74      5      1     35       110.4           110.3           0.000    
     75      4     36     35       110.4           110.0           0.000    
     76      5     36     35       110.4           110.0           0.000    
     77      4     35     34       110.4           110.0           0.000    
     78      5     35     34       110.4           110.0           0.000    
     79      4     36     34       110.4           110.0           0.000    
     80      5     36     34       110.4           110.0           0.000    
     81      4     36     33       110.4           110.0           0.000    
     82      5     36     33       110.4           110.0           0.000    
     83      4     36     32       110.4           110.0           0.000    
     84      5     36     32       110.4           110.0           0.000    
     85      4     37     32       110.4           110.0           0.000    
     86      5     37     32       110.4           110.0           0.000    
     87      4     37     31       110.4           110.0           0.000    
     88      5     37     31       110.4           110.0           0.000    
     89      4     38     31       110.4           110.0           0.000    
     90      5     38     31       110.4           110.0           0.000    
     91      4     38     30       110.4           110.0           0.000    
     92      5     38     30       110.4           110.0           0.000    
     93      4     39     30       110.4           110.0           0.000    
     94      5     39     30       110.4           110.0           0.000    
     95      4     39     29       110.4           110.0           0.000    
     96      5     39     29       110.4           110.0           0.000    
     97      4     40     29       110.4           110.0           0.000    
     98      5     40     29       110.4           110.0           0.000    
     99      4     40     28       110.4           110.0           0.000    
    100      5     40     28       110.4           110.0           0.000    
    101      4     40     27       110.4           110.0           0.000    
    102      5     40     27       110.4           110.0           0.000    
    103      4     41     27       110.4           110.0           0.000    
    104      5     41     27       110.4           110.0           0.000    
    105      4     41     26       110.4           110.0           0.000    
    106      5     41     26       110.4           110.0           0.000    
    107      4     41     25       110.4           110.0           0.000    
    108      5     41     25       110.4           110.0           0.000    
    109      4     41     24       110.4           110.0           0.000    
    110      5     41     24       110.4           110.0           0.000    
    111      4     41     23       110.4           110.0           0.000    
    112      5     41     23       110.4           110.0           0.000    
    113      4     41     22       110.4           110.0           0.000    
    114      5     41     22       110.4           110.0           0.000    
    115      4     42     22       110.4           110.0           0.000    
    116      5     42     22       110.4           110.0           0.000    
    117      4     42     21       110.4           110.0           0.000    
    118      5     42     21       110.4           110.0           0.000    
    119      4     42     20       110.4           110.0           0.000    
    120      5     42     20       110.4           110.0           0.000    
    121      4     42     19       110.4           110.0           0.000    
    122      5     42     19       110.4           110.0           0.000    
    123      4     43     18       110.4           110.0           0.000    
    124      5     43     18       110.4           110.0           0.000    
    125      4     42     18       110.4           110.0           0.000    
    126      5     42     18       110.4           110.0           0.000    
    127      4     42     17       110.4           110.0           0.000    
    128      5     42     17       110.4           110.0           0.000    
    129      4     42     16       110.4           110.0           0.000    
    130      5     42     16       110.4           110.0           0.000    
    131      4     42     15       110.4           110.0           0.000    
    132      5     42     15       110.4           110.0           0.000    
    133      4     43     15       110.4           110.0           0.000    
    134      5     43     15       110.4           110.0           0.000    
    135      4     43     14       110.4           110.0           0.000    
    136      5     43     14       110.4           110.0           0.000    
    137      4     43     13       110.4           110.0           0.000    
    138      5     43     13       110.4           110.0           0.000    
    139      4     43     12       110.4           110.0           0.000    
    140      5     43     12       110.4           110.0           0.000    
    141      4     43     11       110.4           110.0           0.000    
    142      5     43     11       110.4           110.0           0.000    
    143      4     43     10       110.4           110.0           0.000    
    144      5     43     10       110.4           110.0           0.000    
    145      4     44     10       110.4           110.0           0.000    
    146      5     44     10       110.4           110.0           0.000    
    147      4     44      9       110.4           110.0           0.000    
    148      5     44      9       110.4           110.0           0.000    
    149      4     44      8       110.4           109.9           0.000    
    150      5     44      8       110.4           109.9           0.000    
    151      4     44      7       110.4           109.9           0.000    
    152      5     44      7       110.4           109.9           0.000    
    153      4     44      6       110.4           109.9           0.000    
    154      5     44      6       110.4           109.9           0.000    
    155      4     44      5       110.4           109.9           0.000    
    156      5     44      5       110.4           109.9           0.000    
    157      4     44      4       110.4           109.9           0.000    
    158      5     44      4       110.4           109.9           0.000    
    159      4     44      3       110.4           109.9           0.000    
    160      5     44      3       110.4           109.9           0.000    
    161      4     45      3       110.4           109.9           0.000    
    162      5     45      3       110.4           109.9           0.000    
    163      4     45      2       110.4           109.9           0.000    
    164      5     45      2       110.4           109.9           0.000    
    165      4     45      1       110.4           109.9           0.000    
    166      5     45      1       110.4           109.9           0.000    


    166 TIME-VARIANT SPECIFIED-HEAD CELLS

 SOLVING FOR HEAD 


     4 CALLS TO PCG ROUTINE FOR TIME STEP   1 IN STRESS PERIOD   87
    69 TOTAL ITERATIONS

 MAXIMUM HEAD CHANGE FOR EACH ITERATION (1 INDICATES THE FIRST INNER ITERATION):

    HEAD CHANGE    HEAD CHANGE    HEAD CHANGE    HEAD CHANGE    HEAD CHANGE 
   LAYER,ROW,COL  LAYER,ROW,COL  LAYER,ROW,COL  LAYER,ROW,COL  LAYER,ROW,COL
 ---------------------------------------------------------------------------
  1 -0.4416      0  0.2416      0 -0.1397      0  0.1232      0 -0.1574    
   (  5, 43,  5)  (  5, 35,  1)  (  5, 30,  2)  (  5, 41,  2)  (  5, 37,  1)
  0 -0.9007E-01  0 -0.1041      0  0.1130      0  0.6349E-01  0  0.5079E-01
   (  5, 39,  1)  (  5, 40,  1)  (  5, 37,  1)  (  5, 37,  6)  (  5, 40,  2)
  0  0.4385E-01  0  0.2451E-01  0 -0.3000E-01  0  0.2697E-01  0 -0.2164E-01
   (  5, 35,  9)  (  5, 28,  2)  (  5, 33,  9)  (  5, 30,  9)  (  5, 36,  8)
  0  0.1013E-01  0  0.1270E-01  0  0.1038E-01  0 -0.6838E-02  0  0.7434E-02
   (  5, 35,  4)  (  5, 34,  9)  (  5, 15,  1)  (  5, 38,  7)  (  5, 38,  4)
  0 -0.6079E-02  0 -0.3887E-02  0  0.4066E-02  0 -0.4628E-02  0  0.3296E-02
   (  5, 37,  1)  (  5, 33,  7)  (  5, 32,  3)  (  5, 13,  1)  (  5, 13,  1)
  0  0.2386E-02  0  0.1363E-02  0 -0.1024E-02  0  0.1171E-02  0 -0.8116E-03
   (  5, 37,  1)  (  5, 35,  4)  (  5, 35,  1)  (  5, 38,  1)  (  5, 12,  1)
  1 -0.5722E-03  0  0.5338E-03  0 -0.6037E-03  0 -0.3111E-03  0  0.3325E-03
   (  5, 30,  2)  (  5, 33,  1)  (  5, 41,  2)  (  5, 24,  4)  (  5, 30,  7)
  0  0.3958E-03  0 -0.3071E-03  0  0.3530E-03  0 -0.2087E-03  0  0.2050E-03
   (  5, 34,  1)  (  5, 36,  1)  (  5, 37,  1)  (  5, 39,  1)  (  5, 37,  1)
  0 -0.1752E-03  0  0.6508E-04  0  0.1170E-03  0  0.9881E-04  0  0.6373E-04
   (  5, 14,  1)  (  5, 28,  2)  (  5, 41,  2)  (  5, 14,  1)  (  5, 25, 11)
  0 -0.5596E-04  0 -0.3775E-04  0  0.4337E-04  0 -0.3459E-04  0 -0.3093E-04
   (  5, 14,  1)  (  5, 36,  1)  (  5, 37,  4)  (  5, 30, 11)  (  5, 36,  9)
  0  0.1051E-04  0 -0.1749E-04  0 -0.1311E-04  0 -0.1269E-04  0 -0.8373E-05
   (  5, 30,  2)  (  5, 30,  1)  (  5, 38,  1)  (  5, 36,  6)  (  5, 28, 12)
  0  0.9875E-05  0 -0.6922E-05  0  0.5333E-05  0  0.4344E-05  0  0.2306E-05
   (  5, 40,  1)  (  5, 41,  5)  (  5, 37,  1)  (  5, 43,  6)  (  5, 33,  2)
  1 -0.1570E-05  0  0.2056E-05  0  0.1353E-05  0 -0.2184E-05  0  0.2057E-05
   (  5, 31,  2)  (  5, 30,  5)  (  5, 34,  3)  (  5, 36,  1)  (  5, 39,  1)
  0 -0.1722E-05  0 -0.1054E-05  0  0.9672E-06  1 -0.6737E-06
   (  5, 40,  1)  (  5, 38,  3)  (  5, 38,  1)  (  5, 39,  1)

 MAXIMUM RESIDUAL FOR EACH ITERATION (1 INDICATES THE FIRST INNER ITERATION):

    RESIDUAL       RESIDUAL       RESIDUAL       RESIDUAL       RESIDUAL    
   LAYER,ROW,COL  LAYER,ROW,COL  LAYER,ROW,COL  LAYER,ROW,COL  LAYER,ROW,COL
 ---------------------------------------------------------------------------
  1  0.2097E-02  0  0.1584E-02  0  0.1332E-02  0  0.1202E-02  0  0.1015E-02
   (  4, 44,  2)  (  4, 44,  2)  (  4, 35, 35)  (  4, 35, 35)  (  4, 35, 35)
  0  0.8572E-03  0  0.7202E-03  0  0.5716E-03  0  0.4558E-03  0  0.3468E-03
   (  4, 35, 35)  (  3, 40, 27)  (  3, 40, 27)  (  3, 40, 27)  (  3, 40, 27)
  0 -0.2721E-03  0 -0.2434E-03  0 -0.2160E-03  0 -0.1745E-03  0 -0.1366E-03
   (  3, 35, 35)  (  3, 35, 35)  (  3, 35, 35)  (  3, 35, 35)  (  3, 35, 35)
  0 -0.1260E-03  0 -0.9968E-04  0 -0.7828E-04  0 -0.6423E-04  0 -0.5405E-04
   (  4, 43,  4)  (  4, 43,  4)  (  4, 44,  2)  (  4, 44,  2)  (  4, 44,  2)
  0 -0.4782E-04  0 -0.4346E-04  0 -0.3885E-04  0 -0.3113E-04  0 -0.2502E-04
   (  4, 34, 35)  (  4, 34, 35)  (  4, 34, 35)  (  4, 34, 35)  (  4, 34, 35)
  0 -0.2084E-04  0 -0.1824E-04  0 -0.1715E-04  0 -0.1291E-04  0 -0.9048E-05
   (  4, 34, 35)  (  4, 34, 35)  (  4, 34, 35)  (  4, 34, 35)  (  4, 34, 35)
  1 -0.8736E-05  0 -0.8329E-05  0 -0.6631E-05  0 -0.6028E-05  0 -0.5049E-05
   (  4, 34, 35)  (  4, 34, 35)  (  4, 34, 35)  (  4, 34, 35)  (  4, 34, 35)
  0 -0.4264E-05  0 -0.3739E-05  0 -0.2939E-05  0 -0.2476E-05  0 -0.1954E-05
   (  4, 34, 35)  (  4, 34, 35)  (  4, 34, 35)  (  4, 34, 35)  (  4, 34, 35)
  0 -0.1583E-05  0 -0.1499E-05  0  0.1250E-05  0  0.1017E-05  0  0.7738E-06
   (  4, 34, 35)  (  4, 34, 35)  (  4, 35, 35)  (  4, 35, 35)  (  4, 35, 35)
  0  0.5819E-06  0  0.5123E-06  0  0.3994E-06  0  0.2928E-06  0  0.2275E-06
   (  4, 35, 35)  (  4, 35, 35)  (  4, 35, 35)  (  4, 35, 35)  (  4, 35, 35)
  0  0.2157E-06  0  0.1648E-06  0  0.1436E-06  0  0.1075E-06  0  0.7854E-07
   (  4, 35, 35)  (  4, 35, 35)  (  4, 35, 35)  (  4, 35, 35)  (  4, 35, 35)
  0  0.5705E-07  0  0.4269E-07  0  0.3477E-07  0  0.2242E-07  0  0.2082E-07
   (  4, 35, 35)  (  4, 35, 35)  (  4, 35, 35)  (  4, 35, 35)  (  4, 35, 35)
  1  0.2063E-07  0  0.1943E-07  0  0.1885E-07  0  0.1712E-07  0  0.1458E-07
   (  4, 35, 35)  (  4, 35, 35)  (  4, 35, 35)  (  4, 35, 35)  (  4, 35, 35)
  0  0.1245E-07  0  0.1128E-07  0  0.1030E-07  1  0.1001E-07
   (  4, 35, 35)  (  4, 35, 35)  (  4, 35, 35)  (  4, 35, 35)



 OUTPUT CONTROL FOR STRESS PERIOD   87   TIME STEP    1
    SAVE HEAD FOR ALL LAYERS
    SAVE DRAWDOWN FOR ALL LAYERS
    SAVE BUDGET
    PRINT BUDGET
 UBDSV1 SAVING "         STORAGE" ON UNIT   9 AT TIME STEP  1, STRESS PERIOD  87
 UBDSV2 SAVING "   CONSTANT HEAD" ON UNIT   9 AT TIME STEP  1, STRESS PERIOD  87
 UBDSV1 SAVING "FLOW RIGHT FACE " ON UNIT   9 AT TIME STEP  1, STRESS PERIOD  87
 UBDSV1 SAVING "FLOW FRONT FACE " ON UNIT   9 AT TIME STEP  1, STRESS PERIOD  87
 UBDSV1 SAVING "FLOW LOWER FACE " ON UNIT   9 AT TIME STEP  1, STRESS PERIOD  87
 UBDSV3 SAVING "        RECHARGE" ON UNIT   9 AT TIME STEP  1, STRESS PERIOD  87

 HEAD WILL BE SAVED ON UNIT   37 AT END OF TIME STEP    1, STRESS PERIOD   87

 DRAWDOWN WILL BE SAVED ON UNIT   38 AT END OF TIME STEP    1, STRESS PERIOD   87
1
  VOLUMETRIC BUDGET FOR ENTIRE MODEL AT END OF TIME STEP    1, STRESS PERIOD  87
  ------------------------------------------------------------------------------

     CUMULATIVE VOLUMES      L**3       RATES FOR THIS TIME STEP      L**3/T
     ------------------                 ------------------------

           IN:                                      IN:
           ---                                      ---
             STORAGE =       12131.3848               STORAGE =       3.3689E-03
       CONSTANT HEAD =       22966.9727         CONSTANT HEAD =       3.8985E-06
            RECHARGE =        1032.3995              RECHARGE =       1.0213E-04

            TOTAL IN =       36130.7578              TOTAL IN =       3.4749E-03

          OUT:                                     OUT:
          ----                                     ----
             STORAGE =       10456.5967               STORAGE =           0.0000
       CONSTANT HEAD =       25675.1934         CONSTANT HEAD =       3.4751E-03
            RECHARGE =           0.0000              RECHARGE =           0.0000

           TOTAL OUT =       36131.7891             TOTAL OUT =       3.4751E-03

            IN - OUT =          -1.0312              IN - OUT =      -2.4773E-07

 PERCENT DISCREPANCY =          -0.00     PERCENT DISCREPANCY =          -0.01






         TIME SUMMARY AT END OF TIME STEP    1 IN STRESS PERIOD   87
                    SECONDS     MINUTES      HOURS       DAYS        YEARS
                    -----------------------------------------------------------
   TIME STEP LENGTH  86400.      1440.0      24.000      1.0000     2.73785E-03
 STRESS PERIOD TIME  86400.      1440.0      24.000      1.0000     2.73785E-03
         TOTAL TIME 1.01088E+07 1.68480E+05  2808.0      117.00     0.32033    
1

 SOLVING FOR HEAD 
     4 CALLS TO PCG ROUTINE FOR TIME STEP   2 IN STRESS PERIOD   87
    69 TOTAL ITERATIONS

 MAXIMUM HEAD CHANGE FOR EACH ITERATION (1 INDICATES THE FIRST INNER ITERATION):

    HEAD CHANGE    HEAD CHANGE    HEAD CHANGE    HEAD CHANGE    HEAD CHANGE 
   LAYER,ROW,COL  LAYER,ROW,COL  LAYER,ROW,COL  LAYER,ROW,COL  LAYER,ROW,COL
 ---------------------------------------------------------------------------
  1 -0.4504      0  0.2406      0 -0.1397      0  0.1248      0 -0.1536    
   (  5, 43,  5)  (  5, 35,  1)  (  5, 30,  2)  (  5, 41,  2)  (  5, 37,  1)
  0 -0.9418E-01  0 -0.1050      0  0.1126      0  0.6343E-01  0  0.5107E-01
   (  5, 39,  1)  (  5, 40,  1)  (  5, 37,  1)  (  5, 37,  6)  (  5, 40,  2)
  0  0.4618E-01  0 -0.3921E-01  0 -0.1655E-01  0  0.2821E-01  0 -0.2135E-01
   (  5, 35,  9)  (  5, 33, 10)  (  5, 31,  2)  (  5, 30,  9)  (  5, 36,  8)
  0  0.1312E-01  0 -0.1067E-01  0  0.1057E-01  0  0.7137E-02  0  0.7535E-02
   (  5, 37,  1)  (  5, 34,  1)  (  5, 36,  4)  (  5, 30, 10)  (  5, 36,  7)
  0  0.4142E-02  0  0.4967E-02  0 -0.3801E-02  0 -0.4429E-02  0  0.3221E-02
   (  5, 39,  4)  (  5, 32,  4)  (  5, 36,  4)  (  5, 13,  1)  (  5, 13,  1)
  0 -0.2155E-02  0  0.1963E-02  0  0.1115E-02  0 -0.7865E-03  0  0.7781E-03
   (  5, 39,  1)  (  5, 37,  1)  (  5, 12,  1)  (  5, 35,  1)  (  5, 36,  3)
  1 -0.4003E-03  0  0.7896E-03  0 -0.5901E-03  0  0.8947E-03  0 -0.3998E-03
   (  5, 30,  2)  (  5, 34,  1)  (  5, 35,  3)  (  5, 38,  4)  (  5, 37,  1)
  0  0.3565E-03  0 -0.2652E-03  0  0.3370E-03  0 -0.2619E-03  0  0.2425E-03
   (  5, 34,  1)  (  5, 32,  8)  (  5, 37,  1)  (  5, 39,  1)  (  5, 37,  1)
  0 -0.1353E-03  0  0.1258E-03  0  0.1417E-03  0 -0.1111E-03  0  0.6953E-04
   (  5, 32,  4)  (  5, 35,  3)  (  5, 41,  2)  (  5, 34,  8)  (  5, 25, 12)
  0 -0.5974E-04  0  0.4213E-04  0 -0.4251E-04  0 -0.3690E-04  0 -0.3441E-04
   (  5, 36,  1)  (  5, 33,  1)  (  5, 41,  1)  (  5, 30, 11)  (  5, 37,  9)
  0  0.2107E-04  0 -0.1898E-04  0  0.1569E-04  0 -0.1401E-04  0 -0.9278E-05
   (  5, 32,  5)  (  5, 31,  1)  (  5, 35,  1)  (  5, 38,  1)  (  5, 28, 12)
  0 -0.8100E-05  0 -0.7565E-05  0  0.4551E-05  0 -0.4571E-05  0 -0.2831E-05
   (  5, 34,  1)  (  5, 41,  5)  (  5, 36,  2)  (  5, 34,  3)  (  5, 38,  2)
  1  0.1706E-05  0 -0.1729E-05  0 -0.1940E-05  0 -0.1895E-05  0 -0.2177E-05
   (  5, 28,  2)  (  5, 33,  4)  (  5, 39,  3)  (  5, 32,  8)  (  5, 35,  3)
  0  0.2117E-05  0 -0.1071E-05  0 -0.9552E-06  1  0.7002E-06
   (  5, 34,  1)  (  5, 38,  3)  (  5, 34,  9)  (  5, 32,  8)

 MAXIMUM RESIDUAL FOR EACH ITERATION (1 INDICATES THE FIRST INNER ITERATION):

    RESIDUAL       RESIDUAL       RESIDUAL       RESIDUAL       RESIDUAL    
   LAYER,ROW,COL  LAYER,ROW,COL  LAYER,ROW,COL  LAYER,ROW,COL  LAYER,ROW,COL
 ---------------------------------------------------------------------------
  1  0.2062E-02  0  0.1556E-02  0  0.1349E-02  0  0.1220E-02  0  0.1033E-02
   (  4, 44,  2)  (  4, 44,  2)  (  4, 35, 35)  (  4, 35, 35)  (  4, 35, 35)
  0  0.8680E-03  0  0.7184E-03  0  0.5683E-03  0  0.4517E-03  0  0.3432E-03
   (  4, 35, 35)  (  3, 40, 27)  (  3, 40, 27)  (  3, 40, 27)  (  3, 40, 27)
  0 -0.2782E-03  0 -0.2313E-03  0 -0.2200E-03  0 -0.1778E-03  0 -0.1355E-03
   (  3, 35, 35)  (  3, 35, 35)  (  3, 35, 35)  (  3, 35, 35)  (  4, 43,  4)
  0 -0.1113E-03  0 -0.1001E-03  0 -0.7869E-04  0 -0.6459E-04  0 -0.5028E-04
   (  4, 43,  4)  (  4, 43,  4)  (  4, 44,  2)  (  4, 44,  2)  (  4, 34, 35)
  0 -0.4632E-04  0 -0.4225E-04  0 -0.3872E-04  0 -0.3094E-04  0 -0.2467E-04
   (  4, 34, 35)  (  4, 34, 35)  (  4, 34, 35)  (  4, 34, 35)  (  4, 34, 35)
  0 -0.2051E-04  0 -0.1758E-04  0 -0.1300E-04  0 -0.1204E-04  0 -0.8903E-05
   (  4, 34, 35)  (  4, 34, 35)  (  4, 34, 35)  (  4, 34, 35)  (  4, 34, 35)
  1 -0.8848E-05  0 -0.8105E-05  0 -0.7664E-05  0 -0.5912E-05  0 -0.4698E-05
   (  4, 34, 35)  (  4, 34, 35)  (  4, 34, 35)  (  4, 34, 35)  (  4, 34, 35)
  0 -0.3910E-05  0 -0.3325E-05  0 -0.2697E-05  0 -0.2330E-05  0 -0.1899E-05
   (  4, 34, 35)  (  4, 34, 35)  (  4, 34, 35)  (  4, 34, 35)  (  4, 34, 35)
  0  0.1742E-05  0  0.1584E-05  0  0.1316E-05  0  0.1077E-05  0  0.8294E-06
   (  4, 35, 35)  (  4, 35, 35)  (  4, 35, 35)  (  4, 35, 35)  (  4, 35, 35)
  0  0.6513E-06  0  0.5838E-06  0  0.4215E-06  0  0.3112E-06  0  0.2366E-06
   (  4, 35, 35)  (  4, 35, 35)  (  4, 35, 35)  (  4, 35, 35)  (  4, 35, 35)
  0  0.2007E-06  0  0.1733E-06  0  0.1510E-06  0  0.1142E-06  0  0.8370E-07
   (  4, 35, 35)  (  4, 35, 35)  (  4, 35, 35)  (  4, 35, 35)  (  4, 35, 35)
  0  0.6180E-07  0  0.4502E-07  0  0.3577E-07  0  0.2469E-07  0  0.2108E-07
   (  4, 35, 35)  (  4, 35, 35)  (  4, 35, 35)  (  4, 35, 35)  (  4, 35, 35)
  1  0.2098E-07  0  0.2054E-07  0  0.1763E-07  0  0.1550E-07  0  0.1413E-07
   (  4, 35, 35)  (  4, 35, 35)  (  4, 35, 35)  (  4, 35, 35)  (  4, 35, 35)
  0  0.1236E-07  0  0.1159E-07  0  0.1027E-07  1  0.9939E-08
   (  4, 35, 35)  (  4, 35, 35)  (  4, 35, 35)  (  4, 35, 35)



 OUTPUT CONTROL FOR STRESS PERIOD   87   TIME STEP    2
    SAVE HEAD FOR ALL LAYERS
    SAVE DRAWDOWN FOR ALL LAYERS
    SAVE BUDGET
    PRINT BUDGET
 UBDSV1 SAVING "         STORAGE" ON UNIT   9 AT TIME STEP  2, STRESS PERIOD  87
 UBDSV2 SAVING "   CONSTANT HEAD" ON UNIT   9 AT TIME STEP  2, STRESS PERIOD  87
 UBDSV1 SAVING "FLOW RIGHT FACE " ON UNIT   9 AT TIME STEP  2, STRESS PERIOD  87
 UBDSV1 SAVING "FLOW FRONT FACE " ON UNIT   9 AT TIME STEP  2, STRESS PERIOD  87
 UBDSV1 SAVING "FLOW LOWER FACE " ON UNIT   9 AT TIME STEP  2, STRESS PERIOD  87
 UBDSV3 SAVING "        RECHARGE" ON UNIT   9 AT TIME STEP  2, STRESS PERIOD  87

 HEAD WILL BE SAVED ON UNIT   37 AT END OF TIME STEP    2, STRESS PERIOD   87

 DRAWDOWN WILL BE SAVED ON UNIT   38 AT END OF TIME STEP    2, STRESS PERIOD   87
1
  VOLUMETRIC BUDGET FOR ENTIRE MODEL AT END OF TIME STEP    2, STRESS PERIOD  87
  ------------------------------------------------------------------------------

     CUMULATIVE VOLUMES      L**3       RATES FOR THIS TIME STEP      L**3/T
     ------------------                 ------------------------

           IN:                                      IN:
           ---                                      ---
             STORAGE =       12478.8105               STORAGE =       4.0211E-03
       CONSTANT HEAD =       23016.3809         CONSTANT HEAD =       5.7185E-04
            RECHARGE =        1041.2235              RECHARGE =       1.0213E-04

            TOTAL IN =       36536.4141              TOTAL IN =       4.6951E-03

          OUT:                                     OUT:
          ----                                     ----
             STORAGE =       10456.5967               STORAGE =           0.0000
       CONSTANT HEAD =       26080.8711         CONSTANT HEAD =       4.6953E-03
            RECHARGE =           0.0000              RECHARGE =           0.0000

           TOTAL OUT =       36537.4688             TOTAL OUT =       4.6953E-03

            IN - OUT =          -1.0547              IN - OUT =      -2.3423E-07

 PERCENT DISCREPANCY =          -0.00     PERCENT DISCREPANCY =          -0.00






         TIME SUMMARY AT END OF TIME STEP    2 IN STRESS PERIOD   87
                    SECONDS     MINUTES      HOURS       DAYS        YEARS
                    -----------------------------------------------------------
   TIME STEP LENGTH  86400.      1440.0      24.000      1.0000     2.73785E-03
 STRESS PERIOD TIME 1.72800E+05  2880.0      48.000      2.0000     5.47570E-03
         TOTAL TIME 1.01952E+07 1.69920E+05  2832.0      118.00     0.32307    
1

 SOLVING FOR HEAD 
     4 CALLS TO PCG ROUTINE FOR TIME STEP   3 IN STRESS PERIOD   87
    69 TOTAL ITERATIONS

 MAXIMUM HEAD CHANGE FOR EACH ITERATION (1 INDICATES THE FIRST INNER ITERATION):

    HEAD CHANGE    HEAD CHANGE    HEAD CHANGE    HEAD CHANGE    HEAD CHANGE 
   LAYER,ROW,COL  LAYER,ROW,COL  LAYER,ROW,COL  LAYER,ROW,COL  LAYER,ROW,COL
 ---------------------------------------------------------------------------
  1 -0.4538      0  0.2406      0 -0.1396      0  0.1251      0 -0.1516    
   (  5, 43,  5)  (  5, 35,  1)  (  5, 30,  2)  (  5, 41,  2)  (  5, 37,  1)
  0 -0.9681E-01  0 -0.1054      0  0.1120      0  0.6355E-01  0  0.5064E-01
   (  5, 39,  1)  (  5, 40,  1)  (  5, 37,  1)  (  5, 37,  6)  (  5, 40,  2)
  0  0.4776E-01  0 -0.3894E-01  0  0.2186E-01  0  0.2729E-01  0 -0.2080E-01
   (  5, 35,  9)  (  5, 32,  9)  (  5, 29,  3)  (  5, 30,  9)  (  5, 36,  9)
  0  0.1193E-01  0  0.9553E-02  0  0.9507E-02  0 -0.6961E-02  0  0.7875E-02
   (  5, 26, 10)  (  5, 36,  4)  (  5, 15,  1)  (  5, 38,  7)  (  5, 38,  4)
  0 -0.5241E-02  0  0.4339E-02  0 -0.4800E-02  0 -0.4443E-02  0  0.3328E-02
   (  5, 37,  1)  (  5, 32,  4)  (  5, 34,  7)  (  5, 13,  1)  (  5, 13,  1)
  0  0.2442E-02  0 -0.1495E-02  0  0.1152E-02  0 -0.7027E-03  0 -0.7949E-03
   (  5, 37,  1)  (  5, 40,  2)  (  5, 38,  1)  (  5, 35,  1)  (  5, 29,  5)
  1  0.4991E-03  0  0.6819E-03  0  0.6296E-03  0  0.8996E-03  0 -0.4780E-03
   (  5, 32,  2)  (  5, 34,  1)  (  5, 29,  6)  (  5, 38,  4)  (  5, 37,  1)
  0  0.4293E-03  0 -0.2698E-03  0  0.3419E-03  0 -0.2884E-03  0  0.2560E-03
   (  5, 34,  1)  (  5, 28,  6)  (  5, 37,  1)  (  5, 39,  1)  (  5, 37,  1)
  0 -0.1220E-03  0  0.1388E-03  0  0.1407E-03  0 -0.1218E-03  0 -0.7381E-04
   (  5, 32,  4)  (  5, 35,  3)  (  5, 41,  2)  (  5, 34,  8)  (  5, 34,  3)
  0  0.6013E-04  0 -0.7356E-04  0  0.4363E-04  0 -0.3674E-04  0 -0.1781E-04
   (  5, 36,  7)  (  5, 14,  1)  (  5, 13,  1)  (  5, 30, 11)  (  5, 29,  3)
  0 -0.2601E-04  0  0.1946E-04  0  0.1311E-04  0 -0.1259E-04  0 -0.9163E-05
   (  5, 37,  9)  (  5, 39, 10)  (  5, 41,  1)  (  5, 37,  1)  (  5, 36,  7)
  0  0.8765E-05  0 -0.8577E-05  0  0.6186E-05  0 -0.3285E-05  0  0.5367E-05
   (  5, 38,  6)  (  5, 34,  1)  (  5, 36,  1)  (  5, 28,  2)  (  5, 43,  6)
  1  0.2506E-05  0  0.1836E-05  0 -0.2486E-05  0  0.2414E-05  0 -0.2166E-05
   (  5, 39,  2)  (  5, 27,  1)  (  5, 37,  1)  (  5, 37,  3)  (  5, 35,  3)
  0  0.1932E-05  0 -0.1311E-05  0  0.9908E-06  1  0.7229E-06
   (  5, 34,  1)  (  5, 38,  3)  (  5, 39,  5)  (  5, 28,  7)

 MAXIMUM RESIDUAL FOR EACH ITERATION (1 INDICATES THE FIRST INNER ITERATION):

    RESIDUAL       RESIDUAL       RESIDUAL       RESIDUAL       RESIDUAL    
   LAYER,ROW,COL  LAYER,ROW,COL  LAYER,ROW,COL  LAYER,ROW,COL  LAYER,ROW,COL
 ---------------------------------------------------------------------------
  1  0.2048E-02  0  0.1545E-02  0  0.1354E-02  0  0.1225E-02  0  0.1039E-02
   (  4, 44,  2)  (  4, 44,  2)  (  4, 35, 35)  (  4, 35, 35)  (  4, 35, 35)
  0  0.8709E-03  0  0.7169E-03  0  0.5671E-03  0  0.4503E-03  0  0.3416E-03
   (  4, 35, 35)  (  3, 40, 27)  (  3, 40, 27)  (  3, 40, 27)  (  3, 40, 27)
  0 -0.2796E-03  0 -0.2433E-03  0 -0.2221E-03  0 -0.1781E-03  0 -0.1359E-03
   (  3, 35, 35)  (  3, 35, 35)  (  3, 35, 35)  (  3, 35, 35)  (  4, 43,  4)
  0 -0.1064E-03  0 -0.9846E-04  0 -0.7863E-04  0 -0.6450E-04  0 -0.5116E-04
   (  4, 43,  4)  (  4, 43,  4)  (  4, 44,  2)  (  4, 44,  2)  (  4, 44,  2)
  0 -0.4735E-04  0 -0.4468E-04  0 -0.3855E-04  0 -0.3069E-04  0 -0.2432E-04
   (  4, 34, 35)  (  4, 34, 35)  (  4, 34, 35)  (  4, 34, 35)  (  4, 34, 35)
  0 -0.1930E-04  0 -0.1718E-04  0 -0.1276E-04  0 -0.1153E-04  0 -0.8979E-05
   (  4, 34, 35)  (  4, 34, 35)  (  4, 34, 35)  (  4, 34, 35)  (  4, 34, 35)
  1 -0.8937E-05  0 -0.8458E-05  0 -0.7782E-05  0 -0.5679E-05  0 -0.4745E-05
   (  4, 34, 35)  (  4, 34, 35)  (  4, 34, 35)  (  4, 34, 35)  (  4, 34, 35)
  0 -0.3753E-05  0 -0.3165E-05  0 -0.2552E-05  0 -0.2204E-05  0  0.1833E-05
   (  4, 34, 35)  (  4, 34, 35)  (  4, 34, 35)  (  4, 34, 35)  (  4, 35, 35)
  0  0.1748E-05  0  0.1570E-05  0  0.1296E-05  0  0.1062E-05  0  0.9536E-06
   (  4, 35, 35)  (  4, 35, 35)  (  4, 35, 35)  (  4, 35, 35)  (  4, 35, 35)
  0  0.7852E-06  0  0.5843E-06  0  0.4233E-06  0  0.3210E-06  0  0.3032E-06
   (  4, 35, 35)  (  4, 35, 35)  (  4, 35, 35)  (  4, 35, 35)  (  4, 35, 35)
  0  0.2331E-06  0  0.1722E-06  0  0.1308E-06  0  0.1146E-06  0  0.8572E-07
   (  4, 35, 35)  (  4, 35, 35)  (  4, 35, 35)  (  4, 35, 35)  (  4, 35, 35)
  0  0.7065E-07  0  0.6089E-07  0  0.4395E-07  0  0.3984E-07  0  0.2614E-07
   (  4, 35, 35)  (  4, 35, 35)  (  4, 35, 35)  (  4, 35, 35)  (  4, 35, 35)
  1  0.2569E-07  0  0.2509E-07  0  0.2235E-07  0  0.1890E-07  0  0.1758E-07
   (  4, 35, 35)  (  4, 35, 35)  (  4, 35, 35)  (  4, 35, 35)  (  4, 35, 35)
  0  0.1524E-07  0  0.1441E-07  0  0.1249E-07  1  0.1201E-07
   (  4, 35, 35)  (  4, 35, 35)  (  4, 35, 35)  (  4, 35, 35)



 OUTPUT CONTROL FOR STRESS PERIOD   87   TIME STEP    3
    SAVE HEAD FOR ALL LAYERS
    SAVE DRAWDOWN FOR ALL LAYERS
    SAVE BUDGET
    PRINT BUDGET
 UBDSV1 SAVING "         STORAGE" ON UNIT   9 AT TIME STEP  3, STRESS PERIOD  87
 UBDSV2 SAVING "   CONSTANT HEAD" ON UNIT   9 AT TIME STEP  3, STRESS PERIOD  87
 UBDSV1 SAVING "FLOW RIGHT FACE " ON UNIT   9 AT TIME STEP  3, STRESS PERIOD  87
 UBDSV1 SAVING "FLOW FRONT FACE " ON UNIT   9 AT TIME STEP  3, STRESS PERIOD  87
 UBDSV1 SAVING "FLOW LOWER FACE " ON UNIT   9 AT TIME STEP  3, STRESS PERIOD  87
 UBDSV3 SAVING "        RECHARGE" ON UNIT   9 AT TIME STEP  3, STRESS PERIOD  87

 HEAD WILL BE SAVED ON UNIT   37 AT END OF TIME STEP    3, STRESS PERIOD   87

 DRAWDOWN WILL BE SAVED ON UNIT   38 AT END OF TIME STEP    3, STRESS PERIOD   87
1
  VOLUMETRIC BUDGET FOR ENTIRE MODEL AT END OF TIME STEP    3, STRESS PERIOD  87
  ------------------------------------------------------------------------------

     CUMULATIVE VOLUMES      L**3       RATES FOR THIS TIME STEP      L**3/T
     ------------------                 ------------------------

           IN:                                      IN:
           ---                                      ---
             STORAGE =       12844.1133               STORAGE =       4.2280E-03
       CONSTANT HEAD =       23136.8301         CONSTANT HEAD =       1.3941E-03
            RECHARGE =        1050.0475              RECHARGE =       1.0213E-04

            TOTAL IN =       37030.9922              TOTAL IN =       5.7243E-03

          OUT:                                     OUT:
          ----                                     ----
             STORAGE =       10456.5967               STORAGE =           0.0000
       CONSTANT HEAD =       26575.4688         CONSTANT HEAD =       5.7245E-03
            RECHARGE =           0.0000              RECHARGE =           0.0000

           TOTAL OUT =       37032.0664             TOTAL OUT =       5.7245E-03

            IN - OUT =          -1.0742              IN - OUT =      -2.4494E-07

 PERCENT DISCREPANCY =          -0.00     PERCENT DISCREPANCY =          -0.00






         TIME SUMMARY AT END OF TIME STEP    3 IN STRESS PERIOD   87
                    SECONDS     MINUTES      HOURS       DAYS        YEARS
                    -----------------------------------------------------------
   TIME STEP LENGTH  86400.      1440.0      24.000      1.0000     2.73785E-03
 STRESS PERIOD TIME 2.59200E+05  4320.0      72.000      3.0000     8.21355E-03
         TOTAL TIME 1.02816E+07 1.71360E+05  2856.0      119.00     0.32580    
1
1
                            STRESS PERIOD NO.   88, LENGTH =   86400.00    
                            -----------------------------------------------

                              NUMBER OF TIME STEPS =     1

                               MULTIPLIER FOR DELT =     1.000

                            INITIAL TIME STEP SIZE =   86400.00    

 REUSING RECH FROM LAST STRESS PERIOD

 CHD NO.   LAYER   ROW   COL    START HEAD        END HEAD         IFACE           
 ----------------------------------------------------------------------------------
      1      4      3      1       110.3           110.2           0.000    
      2      5      3      1       110.3           110.2           0.000    
      3      4      3      2       110.3           110.2           0.000    
      4      5      3      2       110.3           110.2           0.000    
      5      4      3      3       110.3           110.2           0.000    
      6      5      3      3       110.3           110.2           0.000    
      7      4      3      4       110.3           110.2           0.000    
      8      5      3      4       110.3           110.2           0.000    
      9      4      3      5       110.3           110.2           0.000    
     10      5      3      5       110.3           110.2           0.000    
     11      4      3      6       110.3           110.2           0.000    
     12      5      3      6       110.3           110.2           0.000    
     13      4      3      7       110.3           110.2           0.000    
     14      5      3      7       110.3           110.2           0.000    
     15      4      3      8       110.3           110.2           0.000    
     16      5      3      8       110.3           110.2           0.000    
     17      4      2      8       110.3           110.2           0.000    
     18      5      2      8       110.3           110.2           0.000    
     19      4      2      9       110.3           110.2           0.000    
     20      5      2      9       110.3           110.2           0.000    
     21      4      2     10       110.3           110.2           0.000    
     22      5      2     10       110.3           110.2           0.000    
     23      4      2     11       110.3           110.2           0.000    
     24      5      2     11       110.3           110.2           0.000    
     25      4      2     12       110.3           110.2           0.000    
     26      5      2     12       110.3           110.2           0.000    
     27      4      2     13       110.3           110.2           0.000    
     28      5      2     13       110.3           110.2           0.000    
     29      4      2     14       110.3           110.2           0.000    
     30      5      2     14       110.3           110.2           0.000    
     31      4      2     15       110.3           110.2           0.000    
     32      5      2     15       110.3           110.2           0.000    
     33      4      2     16       110.3           110.2           0.000    
     34      5      2     16       110.3           110.2           0.000    
     35      4      2     17       110.3           110.2           0.000    
     36      5      2     17       110.3           110.2           0.000    
     37      4      2     18       110.3           110.2           0.000    
     38      5      2     18       110.3           110.2           0.000    
     39      4      2     19       110.3           110.2           0.000    
     40      5      2     19       110.3           110.2           0.000    
     41      4      2     20       110.3           110.2           0.000    
     42      5      2     20       110.3           110.2           0.000    
     43      4      2     21       110.3           110.2           0.000    
     44      5      2     21       110.3           110.2           0.000    
     45      4      2     22       110.3           110.2           0.000    
     46      5      2     22       110.3           110.2           0.000    
     47      4      2     23       110.3           110.2           0.000    
     48      5      2     23       110.3           110.2           0.000    
     49      4      2     24       110.3           110.2           0.000    
     50      5      2     24       110.3           110.2           0.000    
     51      4      2     25       110.3           110.2           0.000    
     52      5      2     25       110.3           110.2           0.000    
     53      4      2     26       110.3           110.2           0.000    
     54      5      2     26       110.3           110.2           0.000    
     55      4      1     26       110.3           110.2           0.000    
     56      5      1     26       110.3           110.2           0.000    
     57      4      1     27       110.3           110.2           0.000    
     58      5      1     27       110.3           110.2           0.000    
     59      4      1     28       110.3           110.2           0.000    
     60      5      1     28       110.3           110.2           0.000    
     61      4      1     29       110.3           110.2           0.000    
     62      5      1     29       110.3           110.2           0.000    
     63      4      1     30       110.3           110.2           0.000    
     64      5      1     30       110.3           110.2           0.000    
     65      4      1     31       110.3           110.2           0.000    
     66      5      1     31       110.3           110.2           0.000    
     67      4      1     32       110.3           110.2           0.000    
     68      5      1     32       110.3           110.2           0.000    
     69      4      1     33       110.3           110.2           0.000    
     70      5      1     33       110.3           110.2           0.000    
     71      4      1     34       110.3           110.2           0.000    
     72      5      1     34       110.3           110.2           0.000    
     73      4      1     35       110.3           110.2           0.000    
     74      5      1     35       110.3           110.2           0.000    
     75      4     36     35       110.0           110.1           0.000    
     76      5     36     35       110.0           110.1           0.000    
     77      4     35     34       110.0           110.1           0.000    
     78      5     35     34       110.0           110.1           0.000    
     79      4     36     34       110.0           110.1           0.000    
     80      5     36     34       110.0           110.1           0.000    
     81      4     36     33       110.0           110.1           0.000    
     82      5     36     33       110.0           110.1           0.000    
     83      4     36     32       110.0           110.1           0.000    
     84      5     36     32       110.0           110.1           0.000    
     85      4     37     32       110.0           110.1           0.000    
     86      5     37     32       110.0           110.1           0.000    
     87      4     37     31       110.0           110.1           0.000    
     88      5     37     31       110.0           110.1           0.000    
     89      4     38     31       110.0           110.1           0.000    
     90      5     38     31       110.0           110.1           0.000    
     91      4     38     30       110.0           110.1           0.000    
     92      5     38     30       110.0           110.1           0.000    
     93      4     39     30       110.0           110.1           0.000    
     94      5     39     30       110.0           110.1           0.000    
     95      4     39     29       110.0           110.1           0.000    
     96      5     39     29       110.0           110.1           0.000    
     97      4     40     29       110.0           110.1           0.000    
     98      5     40     29       110.0           110.1           0.000    
     99      4     40     28       110.0           110.1           0.000    
    100      5     40     28       110.0           110.1           0.000    
    101      4     40     27       110.0           110.1           0.000    
    102      5     40     27       110.0           110.1           0.000    
    103      4     41     27       110.0           110.1           0.000    
    104      5     41     27       110.0           110.1           0.000    
    105      4     41     26       110.0           110.1           0.000    
    106      5     41     26       110.0           110.1           0.000    
    107      4     41     25       110.0           110.1           0.000    
    108      5     41     25       110.0           110.1           0.000    
    109      4     41     24       110.0           110.1           0.000    
    110      5     41     24       110.0           110.1           0.000    
    111      4     41     23       110.0           110.1           0.000    
    112      5     41     23       110.0           110.1           0.000    
    113      4     41     22       110.0           110.1           0.000    
    114      5     41     22       110.0           110.1           0.000    
    115      4     42     22       110.0           110.1           0.000    
    116      5     42     22       110.0           110.1           0.000    
    117      4     42     21       110.0           110.1           0.000    
    118      5     42     21       110.0           110.1           0.000    
    119      4     42     20       110.0           110.1           0.000    
    120      5     42     20       110.0           110.1           0.000    
    121      4     42     19       110.0           110.1           0.000    
    122      5     42     19       110.0           110.1           0.000    
    123      4     43     18       110.0           110.1           0.000    
    124      5     43     18       110.0           110.1           0.000    
    125      4     42     18       110.0           110.1           0.000    
    126      5     42     18       110.0           110.1           0.000    
    127      4     42     17       110.0           110.1           0.000    
    128      5     42     17       110.0           110.1           0.000    
    129      4     42     16       110.0           110.1           0.000    
    130      5     42     16       110.0           110.1           0.000    
    131      4     42     15       110.0           110.1           0.000    
    132      5     42     15       110.0           110.1           0.000    
    133      4     43     15       110.0           110.1           0.000    
    134      5     43     15       110.0           110.1           0.000    
    135      4     43     14       110.0           110.1           0.000    
    136      5     43     14       110.0           110.1           0.000    
    137      4     43     13       110.0           110.1           0.000    
    138      5     43     13       110.0           110.1           0.000    
    139      4     43     12       110.0           110.1           0.000    
    140      5     43     12       110.0           110.1           0.000    
    141      4     43     11       110.0           110.1           0.000    
    142      5     43     11       110.0           110.1           0.000    
    143      4     43     10       110.0           110.1           0.000    
    144      5     43     10       110.0           110.1           0.000    
    145      4     44     10       110.0           110.1           0.000    
    146      5     44     10       110.0           110.1           0.000    
    147      4     44      9       110.0           110.1           0.000    
    148      5     44      9       110.0           110.1           0.000    
    149      4     44      8       109.9           110.1           0.000    
    150      5     44      8       109.9           110.1           0.000    
    151      4     44      7       109.9           110.1           0.000    
    152      5     44      7       109.9           110.1           0.000    
    153      4     44      6       109.9           110.1           0.000    
    154      5     44      6       109.9           110.1           0.000    
    155      4     44      5       109.9           110.1           0.000    
    156      5     44      5       109.9           110.1           0.000    
    157      4     44      4       109.9           110.1           0.000    
    158      5     44      4       109.9           110.1           0.000    
    159      4     44      3       109.9           110.1           0.000    
    160      5     44      3       109.9           110.1           0.000    
    161      4     45      3       109.9           110.1           0.000    
    162      5     45      3       109.9           110.1           0.000    
    163      4     45      2       109.9           110.1           0.000    
    164      5     45      2       109.9           110.1           0.000    
    165      4     45      1       109.9           110.1           0.000    
    166      5     45      1       109.9           110.1           0.000    


    166 TIME-VARIANT SPECIFIED-HEAD CELLS

 SOLVING FOR HEAD 


     4 CALLS TO PCG ROUTINE FOR TIME STEP   1 IN STRESS PERIOD   88
    69 TOTAL ITERATIONS

 MAXIMUM HEAD CHANGE FOR EACH ITERATION (1 INDICATES THE FIRST INNER ITERATION):

    HEAD CHANGE    HEAD CHANGE    HEAD CHANGE    HEAD CHANGE    HEAD CHANGE 
   LAYER,ROW,COL  LAYER,ROW,COL  LAYER,ROW,COL  LAYER,ROW,COL  LAYER,ROW,COL
 ---------------------------------------------------------------------------
  1  0.4796      0 -0.2752      0  0.1637      0 -0.1322      0  0.1915    
   (  5, 43,  5)  (  5, 35,  1)  (  5, 31,  2)  (  5, 41,  2)  (  5, 37,  1)
  0  0.9478E-01  0  0.1169      0 -0.1270      0 -0.7338E-01  0 -0.5550E-01
   (  5, 39,  1)  (  5, 40,  1)  (  5, 37,  1)  (  5, 37,  6)  (  5, 40,  2)
  0 -0.4523E-01  0  0.4393E-01  0 -0.1736E-01  0 -0.2332E-01  0  0.2287E-01
   (  5, 35,  9)  (  5, 33,  9)  (  5, 31,  4)  (  5, 31,  9)  (  5, 36,  8)
  0  0.1370E-01  0 -0.1800E-01  0  0.1180E-01  0 -0.1061E-01  0  0.7752E-02
   (  5, 35,  2)  (  5, 34,  8)  (  5, 32,  9)  (  5, 30, 10)  (  5, 37,  1)
  0 -0.7080E-02  0  0.4828E-02  0 -0.2832E-02  0  0.4989E-02  0 -0.3858E-02
   (  5, 38,  4)  (  5, 36,  4)  (  5, 31,  3)  (  5, 13,  1)  (  5, 13,  1)
  0  0.2467E-02  0 -0.2096E-02  0  0.1064E-02  0 -0.1119E-02  0  0.9389E-03
   (  5, 39,  1)  (  5, 37,  1)  (  5, 34,  4)  (  5, 12,  2)  (  5, 12,  1)
  1 -0.5613E-03  0  0.3645E-03  0 -0.6967E-03  0  0.5241E-03  0 -0.3145E-03
   (  5, 33,  1)  (  5, 30,  2)  (  5, 38,  4)  (  5, 37,  1)  (  5, 27,  4)
  0 -0.3428E-03  0  0.2889E-03  0 -0.1968E-03  0  0.2118E-03  0 -0.1651E-03
   (  5, 35,  1)  (  5, 35,  1)  (  5, 38,  4)  (  5, 36,  6)  (  5, 34,  3)
  0  0.1318E-03  0 -0.7388E-04  0  0.1239E-03  0 -0.8255E-04  0  0.6651E-04
   (  5, 14,  1)  (  5, 27,  1)  (  5, 32,  6)  (  5, 34,  6)  (  5, 35,  9)
  0 -0.6244E-04  0 -0.4163E-04  0  0.3330E-04  0  0.3649E-04  0  0.1741E-04
   (  5, 29,  9)  (  5, 39,  1)  (  5, 35,  2)  (  5, 41,  1)  (  5, 26, 12)
  0 -0.1238E-04  0  0.1732E-04  0  0.1582E-04  0 -0.1300E-04  0 -0.1233E-04
   (  5, 30,  2)  (  5, 33,  8)  (  5, 38,  1)  (  5, 35,  1)  (  5, 40,  1)
  0 -0.9466E-05  0 -0.5594E-05  0 -0.4680E-05  0  0.3786E-05  0 -0.2752E-05
   (  5, 38,  6)  (  5, 37,  1)  (  5, 32,  1)  (  5, 34,  3)  (  5, 39,  3)
  1  0.1403E-05  0 -0.1866E-05  0  0.1591E-05  0 -0.1430E-05  0  0.1668E-05
   (  5, 29,  3)  (  5, 35,  4)  (  5, 31,  1)  (  5, 36,  2)  (  5, 13,  1)
  0 -0.1405E-05  0  0.1118E-05  0 -0.7850E-06  1  0.7898E-06
   (  5, 12,  1)  (  5, 27,  7)  (  5, 37,  4)  (  5, 37,  3)

 MAXIMUM RESIDUAL FOR EACH ITERATION (1 INDICATES THE FIRST INNER ITERATION):

    RESIDUAL       RESIDUAL       RESIDUAL       RESIDUAL       RESIDUAL    
   LAYER,ROW,COL  LAYER,ROW,COL  LAYER,ROW,COL  LAYER,ROW,COL  LAYER,ROW,COL
 ---------------------------------------------------------------------------
  1 -0.2639E-02  0 -0.2036E-02  0 -0.1735E-02  0 -0.1424E-02  0 -0.1197E-02
   (  4, 44,  2)  (  4, 44,  2)  (  4, 44,  2)  (  4, 35, 35)  (  4, 35, 35)
  0 -0.1042E-02  0 -0.8873E-03  0 -0.7143E-03  0 -0.5778E-03  0 -0.4461E-03
   (  3, 40, 27)  (  3, 40, 27)  (  3, 40, 27)  (  3, 40, 27)  (  3, 40, 27)
  0 -0.3467E-03  0 -0.2659E-03  0 -0.2508E-03  0  0.1946E-03  0  0.1551E-03
   (  4, 35, 35)  (  4, 35, 35)  (  4, 35, 35)  (  3, 35, 35)  (  3, 35, 35)
  0  0.1423E-03  0  0.1106E-03  0  0.8518E-04  0  0.7323E-04  0  0.6579E-04
   (  3, 35, 35)  (  3, 35, 35)  (  4, 34, 35)  (  4, 34, 35)  (  4, 34, 35)
  0  0.5873E-04  0  0.4912E-04  0  0.4751E-04  0  0.3806E-04  0  0.3067E-04
   (  4, 34, 35)  (  4, 34, 35)  (  4, 34, 35)  (  4, 34, 35)  (  4, 34, 35)
  0  0.2488E-04  0  0.2257E-04  0  0.2095E-04  0  0.1605E-04  0  0.1129E-04
   (  4, 34, 35)  (  4, 34, 35)  (  4, 34, 35)  (  4, 34, 35)  (  4, 34, 35)
  1  0.1060E-04  0  0.1041E-04  0  0.8595E-05  0  0.7505E-05  0  0.6369E-05
   (  4, 34, 35)  (  4, 34, 35)  (  4, 34, 35)  (  4, 34, 35)  (  4, 34, 35)
  0  0.5660E-05  0  0.4779E-05  0  0.3951E-05  0  0.3114E-05  0  0.2511E-05
   (  4, 34, 35)  (  4, 34, 35)  (  4, 34, 35)  (  4, 34, 35)  (  4, 34, 35)
  0  0.1941E-05  0  0.1826E-05  0  0.1399E-05  0 -0.1126E-05  0 -0.8728E-06
   (  4, 34, 35)  (  4, 34, 35)  (  4, 34, 35)  (  4, 35, 35)  (  4, 35, 35)
  0 -0.6631E-06  0 -0.5541E-06  0 -0.4798E-06  0 -0.3496E-06  0 -0.2622E-06
   (  4, 35, 35)  (  4, 35, 35)  (  4, 35, 35)  (  4, 35, 35)  (  4, 35, 35)
  0 -0.2449E-06  0 -0.1868E-06  0 -0.1610E-06  0 -0.1259E-06  0 -0.9312E-07
   (  4, 35, 35)  (  4, 35, 35)  (  4, 35, 35)  (  4, 35, 35)  (  4, 35, 35)
  0 -0.6946E-07  0 -0.5251E-07  0 -0.4039E-07  0 -0.3263E-07  0 -0.2917E-07
   (  4, 35, 35)  (  4, 35, 35)  (  4, 35, 35)  (  4, 35, 35)  (  3, 36, 35)
  1 -0.2913E-07  0 -0.2800E-07  0 -0.2668E-07  0 -0.2553E-07  0 -0.2106E-07
   (  3, 36, 35)  (  3, 36, 35)  (  3, 36, 35)  (  3, 36, 35)  (  3, 36, 35)
  0 -0.1617E-07  0 -0.1303E-07  0 -0.1126E-07  1 -0.1100E-07
   (  3, 36, 35)  (  3, 36, 35)  (  4, 35, 35)  (  4, 35, 35)



 OUTPUT CONTROL FOR STRESS PERIOD   88   TIME STEP    1
    SAVE HEAD FOR ALL LAYERS
    SAVE DRAWDOWN FOR ALL LAYERS
    SAVE BUDGET
    PRINT BUDGET
 UBDSV1 SAVING "         STORAGE" ON UNIT   9 AT TIME STEP  1, STRESS PERIOD  88
 UBDSV2 SAVING "   CONSTANT HEAD" ON UNIT   9 AT TIME STEP  1, STRESS PERIOD  88
 UBDSV1 SAVING "FLOW RIGHT FACE " ON UNIT   9 AT TIME STEP  1, STRESS PERIOD  88
 UBDSV1 SAVING "FLOW FRONT FACE " ON UNIT   9 AT TIME STEP  1, STRESS PERIOD  88
 UBDSV1 SAVING "FLOW LOWER FACE " ON UNIT   9 AT TIME STEP  1, STRESS PERIOD  88
 UBDSV3 SAVING "        RECHARGE" ON UNIT   9 AT TIME STEP  1, STRESS PERIOD  88

 HEAD WILL BE SAVED ON UNIT   37 AT END OF TIME STEP    1, STRESS PERIOD   88

 DRAWDOWN WILL BE SAVED ON UNIT   38 AT END OF TIME STEP    1, STRESS PERIOD   88
1
  VOLUMETRIC BUDGET FOR ENTIRE MODEL AT END OF TIME STEP    1, STRESS PERIOD  88
  ------------------------------------------------------------------------------

     CUMULATIVE VOLUMES      L**3       RATES FOR THIS TIME STEP      L**3/T
     ------------------                 ------------------------

           IN:                                      IN:
           ---                                      ---
             STORAGE =       12857.6621               STORAGE =       1.5681E-04
       CONSTANT HEAD =       23271.3438         CONSTANT HEAD =       1.5569E-03
            RECHARGE =        1058.8715              RECHARGE =       1.0213E-04

            TOTAL IN =       37187.8789              TOTAL IN =       1.8158E-03

          OUT:                                     OUT:
          ----                                     ----
             STORAGE =       10588.9609               STORAGE =       1.5320E-03
       CONSTANT HEAD =       26599.9922         CONSTANT HEAD =       2.8384E-04
            RECHARGE =           0.0000              RECHARGE =           0.0000

           TOTAL OUT =       37188.9531             TOTAL OUT =       1.8158E-03

            IN - OUT =          -1.0742              IN - OUT =      -2.0489E-08

 PERCENT DISCREPANCY =          -0.00     PERCENT DISCREPANCY =          -0.00






         TIME SUMMARY AT END OF TIME STEP    1 IN STRESS PERIOD   88
                    SECONDS     MINUTES      HOURS       DAYS        YEARS
                    -----------------------------------------------------------
   TIME STEP LENGTH  86400.      1440.0      24.000      1.0000     2.73785E-03
 STRESS PERIOD TIME  86400.      1440.0      24.000      1.0000     2.73785E-03
         TOTAL TIME 1.03680E+07 1.72800E+05  2880.0      120.00     0.32854    
1
1
                            STRESS PERIOD NO.   89, LENGTH =   86400.00    
                            -----------------------------------------------

                              NUMBER OF TIME STEPS =     1

                               MULTIPLIER FOR DELT =     1.000

                            INITIAL TIME STEP SIZE =   86400.00    

 REUSING RECH FROM LAST STRESS PERIOD

 CHD NO.   LAYER   ROW   COL    START HEAD        END HEAD         IFACE           
 ----------------------------------------------------------------------------------
      1      4      3      1       110.2           110.2           0.000    
      2      5      3      1       110.2           110.2           0.000    
      3      4      3      2       110.2           110.2           0.000    
      4      5      3      2       110.2           110.2           0.000    
      5      4      3      3       110.2           110.2           0.000    
      6      5      3      3       110.2           110.2           0.000    
      7      4      3      4       110.2           110.2           0.000    
      8      5      3      4       110.2           110.2           0.000    
      9      4      3      5       110.2           110.2           0.000    
     10      5      3      5       110.2           110.2           0.000    
     11      4      3      6       110.2           110.2           0.000    
     12      5      3      6       110.2           110.2           0.000    
     13      4      3      7       110.2           110.2           0.000    
     14      5      3      7       110.2           110.2           0.000    
     15      4      3      8       110.2           110.2           0.000    
     16      5      3      8       110.2           110.2           0.000    
     17      4      2      8       110.2           110.2           0.000    
     18      5      2      8       110.2           110.2           0.000    
     19      4      2      9       110.2           110.2           0.000    
     20      5      2      9       110.2           110.2           0.000    
     21      4      2     10       110.2           110.2           0.000    
     22      5      2     10       110.2           110.2           0.000    
     23      4      2     11       110.2           110.2           0.000    
     24      5      2     11       110.2           110.2           0.000    
     25      4      2     12       110.2           110.2           0.000    
     26      5      2     12       110.2           110.2           0.000    
     27      4      2     13       110.2           110.2           0.000    
     28      5      2     13       110.2           110.2           0.000    
     29      4      2     14       110.2           110.2           0.000    
     30      5      2     14       110.2           110.2           0.000    
     31      4      2     15       110.2           110.2           0.000    
     32      5      2     15       110.2           110.2           0.000    
     33      4      2     16       110.2           110.2           0.000    
     34      5      2     16       110.2           110.2           0.000    
     35      4      2     17       110.2           110.2           0.000    
     36      5      2     17       110.2           110.2           0.000    
     37      4      2     18       110.2           110.2           0.000    
     38      5      2     18       110.2           110.2           0.000    
     39      4      2     19       110.2           110.2           0.000    
     40      5      2     19       110.2           110.2           0.000    
     41      4      2     20       110.2           110.2           0.000    
     42      5      2     20       110.2           110.2           0.000    
     43      4      2     21       110.2           110.2           0.000    
     44      5      2     21       110.2           110.2           0.000    
     45      4      2     22       110.2           110.2           0.000    
     46      5      2     22       110.2           110.2           0.000    
     47      4      2     23       110.2           110.2           0.000    
     48      5      2     23       110.2           110.2           0.000    
     49      4      2     24       110.2           110.2           0.000    
     50      5      2     24       110.2           110.2           0.000    
     51      4      2     25       110.2           110.2           0.000    
     52      5      2     25       110.2           110.2           0.000    
     53      4      2     26       110.2           110.2           0.000    
     54      5      2     26       110.2           110.2           0.000    
     55      4      1     26       110.2           110.2           0.000    
     56      5      1     26       110.2           110.2           0.000    
     57      4      1     27       110.2           110.2           0.000    
     58      5      1     27       110.2           110.2           0.000    
     59      4      1     28       110.2           110.2           0.000    
     60      5      1     28       110.2           110.2           0.000    
     61      4      1     29       110.2           110.2           0.000    
     62      5      1     29       110.2           110.2           0.000    
     63      4      1     30       110.2           110.2           0.000    
     64      5      1     30       110.2           110.2           0.000    
     65      4      1     31       110.2           110.2           0.000    
     66      5      1     31       110.2           110.2           0.000    
     67      4      1     32       110.2           110.2           0.000    
     68      5      1     32       110.2           110.2           0.000    
     69      4      1     33       110.2           110.2           0.000    
     70      5      1     33       110.2           110.2           0.000    
     71      4      1     34       110.2           110.2           0.000    
     72      5      1     34       110.2           110.2           0.000    
     73      4      1     35       110.2           110.2           0.000    
     74      5      1     35       110.2           110.2           0.000    
     75      4     36     35       110.1           110.2           0.000    
     76      5     36     35       110.1           110.2           0.000    
     77      4     35     34       110.1           110.2           0.000    
     78      5     35     34       110.1           110.2           0.000    
     79      4     36     34       110.1           110.2           0.000    
     80      5     36     34       110.1           110.2           0.000    
     81      4     36     33       110.1           110.2           0.000    
     82      5     36     33       110.1           110.2           0.000    
     83      4     36     32       110.1           110.2           0.000    
     84      5     36     32       110.1           110.2           0.000    
     85      4     37     32       110.1           110.2           0.000    
     86      5     37     32       110.1           110.2           0.000    
     87      4     37     31       110.1           110.2           0.000    
     88      5     37     31       110.1           110.2           0.000    
     89      4     38     31       110.1           110.2           0.000    
     90      5     38     31       110.1           110.2           0.000    
     91      4     38     30       110.1           110.2           0.000    
     92      5     38     30       110.1           110.2           0.000    
     93      4     39     30       110.1           110.2           0.000    
     94      5     39     30       110.1           110.2           0.000    
     95      4     39     29       110.1           110.2           0.000    
     96      5     39     29       110.1           110.2           0.000    
     97      4     40     29       110.1           110.2           0.000    
     98      5     40     29       110.1           110.2           0.000    
     99      4     40     28       110.1           110.2           0.000    
    100      5     40     28       110.1           110.2           0.000    
    101      4     40     27       110.1           110.1           0.000    
    102      5     40     27       110.1           110.1           0.000    
    103      4     41     27       110.1           110.1           0.000    
    104      5     41     27       110.1           110.1           0.000    
    105      4     41     26       110.1           110.1           0.000    
    106      5     41     26       110.1           110.1           0.000    
    107      4     41     25       110.1           110.1           0.000    
    108      5     41     25       110.1           110.1           0.000    
    109      4     41     24       110.1           110.1           0.000    
    110      5     41     24       110.1           110.1           0.000    
    111      4     41     23       110.1           110.1           0.000    
    112      5     41     23       110.1           110.1           0.000    
    113      4     41     22       110.1           110.1           0.000    
    114      5     41     22       110.1           110.1           0.000    
    115      4     42     22       110.1           110.1           0.000    
    116      5     42     22       110.1           110.1           0.000    
    117      4     42     21       110.1           110.1           0.000    
    118      5     42     21       110.1           110.1           0.000    
    119      4     42     20       110.1           110.1           0.000    
    120      5     42     20       110.1           110.1           0.000    
    121      4     42     19       110.1           110.1           0.000    
    122      5     42     19       110.1           110.1           0.000    
    123      4     43     18       110.1           110.1           0.000    
    124      5     43     18       110.1           110.1           0.000    
    125      4     42     18       110.1           110.1           0.000    
    126      5     42     18       110.1           110.1           0.000    
    127      4     42     17       110.1           110.1           0.000    
    128      5     42     17       110.1           110.1           0.000    
    129      4     42     16       110.1           110.1           0.000    
    130      5     42     16       110.1           110.1           0.000    
    131      4     42     15       110.1           110.1           0.000    
    132      5     42     15       110.1           110.1           0.000    
    133      4     43     15       110.1           110.1           0.000    
    134      5     43     15       110.1           110.1           0.000    
    135      4     43     14       110.1           110.1           0.000    
    136      5     43     14       110.1           110.1           0.000    
    137      4     43     13       110.1           110.1           0.000    
    138      5     43     13       110.1           110.1           0.000    
    139      4     43     12       110.1           110.1           0.000    
    140      5     43     12       110.1           110.1           0.000    
    141      4     43     11       110.1           110.1           0.000    
    142      5     43     11       110.1           110.1           0.000    
    143      4     43     10       110.1           110.1           0.000    
    144      5     43     10       110.1           110.1           0.000    
    145      4     44     10       110.1           110.1           0.000    
    146      5     44     10       110.1           110.1           0.000    
    147      4     44      9       110.1           110.1           0.000    
    148      5     44      9       110.1           110.1           0.000    
    149      4     44      8       110.1           110.1           0.000    
    150      5     44      8       110.1           110.1           0.000    
    151      4     44      7       110.1           110.1           0.000    
    152      5     44      7       110.1           110.1           0.000    
    153      4     44      6       110.1           110.1           0.000    
    154      5     44      6       110.1           110.1           0.000    
    155      4     44      5       110.1           110.1           0.000    
    156      5     44      5       110.1           110.1           0.000    
    157      4     44      4       110.1           110.1           0.000    
    158      5     44      4       110.1           110.1           0.000    
    159      4     44      3       110.1           110.1           0.000    
    160      5     44      3       110.1           110.1           0.000    
    161      4     45      3       110.1           110.1           0.000    
    162      5     45      3       110.1           110.1           0.000    
    163      4     45      2       110.1           110.1           0.000    
    164      5     45      2       110.1           110.1           0.000    
    165      4     45      1       110.1           110.1           0.000    
    166      5     45      1       110.1           110.1           0.000    


    166 TIME-VARIANT SPECIFIED-HEAD CELLS

 SOLVING FOR HEAD 


     3 CALLS TO PCG ROUTINE FOR TIME STEP   1 IN STRESS PERIOD   89
    55 TOTAL ITERATIONS

 MAXIMUM HEAD CHANGE FOR EACH ITERATION (1 INDICATES THE FIRST INNER ITERATION):

    HEAD CHANGE    HEAD CHANGE    HEAD CHANGE    HEAD CHANGE    HEAD CHANGE 
   LAYER,ROW,COL  LAYER,ROW,COL  LAYER,ROW,COL  LAYER,ROW,COL  LAYER,ROW,COL
 ---------------------------------------------------------------------------
  1  0.3517E-01  0 -0.2085E-01  0 -0.1703E-01  0  0.1476E-01  0  0.1889E-01
   (  5, 43,  6)  (  5, 33,  1)  (  5, 39,  2)  (  5, 35,  2)  (  5, 37,  1)
  0  0.1140E-01  0  0.7252E-02  0 -0.7809E-02  0 -0.5578E-02  0 -0.6955E-02
   (  5, 34,  6)  (  5, 24,  5)  (  5, 34,  6)  (  5, 39,  1)  (  5, 32, 10)
  0 -0.4637E-02  0  0.3446E-02  0 -0.2290E-02  0 -0.1921E-02  0 -0.1649E-02
   (  5, 40,  1)  (  5, 38,  1)  (  5, 29,  4)  (  5, 16,  1)  (  5, 33,  3)
  0 -0.1392E-02  0  0.9732E-03  0 -0.1282E-02  0  0.8182E-03  0 -0.8119E-03
   (  5, 41,  6)  (  5, 33,  1)  (  5, 35,  3)  (  5, 38,  7)  (  5, 36,  7)
  0 -0.4818E-03  0  0.3605E-03  0  0.4770E-03  0 -0.3174E-03  0 -0.2962E-03
   (  5, 14,  1)  (  5, 38,  2)  (  5, 30,  2)  (  5, 34,  1)  (  5, 40,  5)
  0 -0.2108E-03  0  0.1726E-03  0  0.1225E-03  0 -0.8959E-04  0  0.1109E-03
   (  5, 37,  1)  (  5, 39,  2)  (  5, 33,  4)  (  5, 41,  5)  (  5, 35,  1)
  1 -0.7606E-04  0  0.4691E-04  0 -0.6108E-04  0  0.3440E-04  0 -0.4381E-04
   (  5, 34,  1)  (  5, 34,  3)  (  5, 36,  7)  (  5, 29,  1)  (  5, 39,  2)
  0  0.5147E-04  0  0.3837E-04  0 -0.2491E-04  0 -0.2785E-04  0 -0.1779E-04
   (  5, 41,  2)  (  5, 39,  5)  (  5, 36,  1)  (  5, 29,  1)  (  5, 33,  7)
  0  0.1588E-04  0 -0.1493E-04  0  0.5820E-05  0 -0.8289E-05  0 -0.7082E-05
   (  5, 33, 11)  (  5, 32,  9)  (  5, 29,  1)  (  5, 31,  4)  (  5, 28,  6)
  0 -0.5789E-05  0 -0.4564E-05  0 -0.4930E-05  0 -0.3258E-05  0  0.2226E-05
   (  5, 33,  1)  (  5, 34,  8)  (  5, 37,  4)  (  5, 39,  1)  (  5, 41,  2)
  0 -0.2077E-05  0  0.1245E-05  0  0.1014E-05  0 -0.8379E-06  1  0.7708E-06
   (  5, 28, 11)  (  5, 38,  1)  (  5, 30,  3)  (  5, 35,  1)  (  5, 35,  1)

 MAXIMUM RESIDUAL FOR EACH ITERATION (1 INDICATES THE FIRST INNER ITERATION):

    RESIDUAL       RESIDUAL       RESIDUAL       RESIDUAL       RESIDUAL    
   LAYER,ROW,COL  LAYER,ROW,COL  LAYER,ROW,COL  LAYER,ROW,COL  LAYER,ROW,COL
 ---------------------------------------------------------------------------
  1 -0.1898E-03  0 -0.1578E-03  0 -0.1391E-03  0 -0.1227E-03  0 -0.9919E-04
   (  4, 44,  2)  (  4, 44,  2)  (  4, 35, 35)  (  4, 35, 35)  (  4, 35, 35)
  0 -0.8072E-04  0 -0.6776E-04  0 -0.5372E-04  0 -0.4169E-04  0  0.3398E-04
   (  4, 35, 35)  (  3, 41, 22)  (  3, 40, 27)  (  3, 40, 27)  (  3, 35, 35)
  0  0.2788E-04  0  0.2377E-04  0  0.2189E-04  0  0.1797E-04  0  0.1381E-04
   (  3, 35, 35)  (  3, 35, 35)  (  3, 35, 35)  (  4, 43,  4)  (  4, 43,  4)
  0  0.1096E-04  0  0.1035E-04  0  0.8579E-05  0  0.7157E-05  0  0.5524E-05
   (  3, 41, 23)  (  3, 41, 23)  (  3, 41, 23)  (  4, 44,  2)  (  4, 44,  2)
  0  0.4320E-05  0  0.3889E-05  0  0.3500E-05  0  0.3183E-05  0  0.2361E-05
   (  4, 44,  2)  (  4, 34, 35)  (  4, 34, 35)  (  4, 34, 35)  (  4, 34, 35)
  0  0.1771E-05  0  0.1528E-05  0  0.1149E-05  0  0.9220E-06  0  0.7910E-06
   (  4, 34, 35)  (  4, 34, 35)  (  4, 34, 35)  (  4, 34, 35)  (  4, 34, 35)
  1  0.7672E-06  0  0.7420E-06  0  0.6550E-06  0  0.6328E-06  0  0.5777E-06
   (  4, 34, 35)  (  4, 34, 35)  (  4, 34, 35)  (  4, 34, 35)  (  4, 34, 35)
  0  0.4740E-06  0  0.3563E-06  0  0.3204E-06  0  0.2215E-06  0  0.1633E-06
   (  4, 34, 35)  (  4, 34, 35)  (  4, 34, 35)  (  4, 34, 35)  (  4, 34, 35)
  0 -0.1147E-06  0 -0.8837E-07  0 -0.8371E-07  0 -0.6487E-07  0 -0.5170E-07
   (  4, 35, 35)  (  4, 35, 35)  (  4, 35, 35)  (  4, 35, 35)  (  4, 35, 35)
  0 -0.4606E-07  0 -0.3580E-07  0 -0.2522E-07  0 -0.1898E-07  0 -0.1450E-07
   (  4, 35, 35)  (  4, 35, 35)  (  4, 35, 35)  (  4, 35, 35)  (  4, 35, 35)
  0 -0.1114E-07  0 -0.8634E-08  0 -0.7994E-08  0 -0.7367E-08  1 -0.7254E-08
   (  4, 35, 35)  (  4, 35, 35)  (  3, 40, 27)  (  3, 40, 27)  (  3, 40, 27)



 OUTPUT CONTROL FOR STRESS PERIOD   89   TIME STEP    1
    SAVE HEAD FOR ALL LAYERS
    SAVE DRAWDOWN FOR ALL LAYERS
    SAVE BUDGET
    PRINT BUDGET
 UBDSV1 SAVING "         STORAGE" ON UNIT   9 AT TIME STEP  1, STRESS PERIOD  89
 UBDSV2 SAVING "   CONSTANT HEAD" ON UNIT   9 AT TIME STEP  1, STRESS PERIOD  89
 UBDSV1 SAVING "FLOW RIGHT FACE " ON UNIT   9 AT TIME STEP  1, STRESS PERIOD  89
 UBDSV1 SAVING "FLOW FRONT FACE " ON UNIT   9 AT TIME STEP  1, STRESS PERIOD  89
 UBDSV1 SAVING "FLOW LOWER FACE " ON UNIT   9 AT TIME STEP  1, STRESS PERIOD  89
 UBDSV3 SAVING "        RECHARGE" ON UNIT   9 AT TIME STEP  1, STRESS PERIOD  89

 HEAD WILL BE SAVED ON UNIT   37 AT END OF TIME STEP    1, STRESS PERIOD   89

 DRAWDOWN WILL BE SAVED ON UNIT   38 AT END OF TIME STEP    1, STRESS PERIOD   89
1
  VOLUMETRIC BUDGET FOR ENTIRE MODEL AT END OF TIME STEP    1, STRESS PERIOD  89
  ------------------------------------------------------------------------------

     CUMULATIVE VOLUMES      L**3       RATES FOR THIS TIME STEP      L**3/T
     ------------------                 ------------------------

           IN:                                      IN:
           ---                                      ---
             STORAGE =       12862.8711               STORAGE =       6.0286E-05
       CONSTANT HEAD =       23356.3691         CONSTANT HEAD =       9.8409E-04
            RECHARGE =        1067.6954              RECHARGE =       1.0213E-04

            TOTAL IN =       37286.9375              TOTAL IN =       1.1465E-03

          OUT:                                     OUT:
          ----                                     ----
             STORAGE =       10626.4814               STORAGE =       4.3427E-04
       CONSTANT HEAD =       26661.5410         CONSTANT HEAD =       7.1237E-04
            RECHARGE =           0.0000              RECHARGE =           0.0000

           TOTAL OUT =       37288.0234             TOTAL OUT =       1.1466E-03

            IN - OUT =          -1.0859              IN - OUT =      -1.3178E-07

 PERCENT DISCREPANCY =          -0.00     PERCENT DISCREPANCY =          -0.01






         TIME SUMMARY AT END OF TIME STEP    1 IN STRESS PERIOD   89
                    SECONDS     MINUTES      HOURS       DAYS        YEARS
                    -----------------------------------------------------------
   TIME STEP LENGTH  86400.      1440.0      24.000      1.0000     2.73785E-03
 STRESS PERIOD TIME  86400.      1440.0      24.000      1.0000     2.73785E-03
         TOTAL TIME 1.04544E+07 1.74240E+05  2904.0      121.00     0.33128    
1
1
                            STRESS PERIOD NO.   90, LENGTH =   86400.00    
                            -----------------------------------------------

                              NUMBER OF TIME STEPS =     1

                               MULTIPLIER FOR DELT =     1.000

                            INITIAL TIME STEP SIZE =   86400.00    

 REUSING RECH FROM LAST STRESS PERIOD

 CHD NO.   LAYER   ROW   COL    START HEAD        END HEAD         IFACE           
 ----------------------------------------------------------------------------------
      1      4      3      1       110.2           110.2           0.000    
      2      5      3      1       110.2           110.2           0.000    
      3      4      3      2       110.2           110.2           0.000    
      4      5      3      2       110.2           110.2           0.000    
      5      4      3      3       110.2           110.2           0.000    
      6      5      3      3       110.2           110.2           0.000    
      7      4      3      4       110.2           110.2           0.000    
      8      5      3      4       110.2           110.2           0.000    
      9      4      3      5       110.2           110.2           0.000    
     10      5      3      5       110.2           110.2           0.000    
     11      4      3      6       110.2           110.2           0.000    
     12      5      3      6       110.2           110.2           0.000    
     13      4      3      7       110.2           110.2           0.000    
     14      5      3      7       110.2           110.2           0.000    
     15      4      3      8       110.2           110.2           0.000    
     16      5      3      8       110.2           110.2           0.000    
     17      4      2      8       110.2           110.2           0.000    
     18      5      2      8       110.2           110.2           0.000    
     19      4      2      9       110.2           110.2           0.000    
     20      5      2      9       110.2           110.2           0.000    
     21      4      2     10       110.2           110.2           0.000    
     22      5      2     10       110.2           110.2           0.000    
     23      4      2     11       110.2           110.2           0.000    
     24      5      2     11       110.2           110.2           0.000    
     25      4      2     12       110.2           110.2           0.000    
     26      5      2     12       110.2           110.2           0.000    
     27      4      2     13       110.2           110.2           0.000    
     28      5      2     13       110.2           110.2           0.000    
     29      4      2     14       110.2           110.2           0.000    
     30      5      2     14       110.2           110.2           0.000    
     31      4      2     15       110.2           110.2           0.000    
     32      5      2     15       110.2           110.2           0.000    
     33      4      2     16       110.2           110.2           0.000    
     34      5      2     16       110.2           110.2           0.000    
     35      4      2     17       110.2           110.2           0.000    
     36      5      2     17       110.2           110.2           0.000    
     37      4      2     18       110.2           110.2           0.000    
     38      5      2     18       110.2           110.2           0.000    
     39      4      2     19       110.2           110.2           0.000    
     40      5      2     19       110.2           110.2           0.000    
     41      4      2     20       110.2           110.2           0.000    
     42      5      2     20       110.2           110.2           0.000    
     43      4      2     21       110.2           110.2           0.000    
     44      5      2     21       110.2           110.2           0.000    
     45      4      2     22       110.2           110.2           0.000    
     46      5      2     22       110.2           110.2           0.000    
     47      4      2     23       110.2           110.2           0.000    
     48      5      2     23       110.2           110.2           0.000    
     49      4      2     24       110.2           110.2           0.000    
     50      5      2     24       110.2           110.2           0.000    
     51      4      2     25       110.2           110.2           0.000    
     52      5      2     25       110.2           110.2           0.000    
     53      4      2     26       110.2           110.2           0.000    
     54      5      2     26       110.2           110.2           0.000    
     55      4      1     26       110.2           110.2           0.000    
     56      5      1     26       110.2           110.2           0.000    
     57      4      1     27       110.2           110.2           0.000    
     58      5      1     27       110.2           110.2           0.000    
     59      4      1     28       110.2           110.2           0.000    
     60      5      1     28       110.2           110.2           0.000    
     61      4      1     29       110.2           110.2           0.000    
     62      5      1     29       110.2           110.2           0.000    
     63      4      1     30       110.2           110.2           0.000    
     64      5      1     30       110.2           110.2           0.000    
     65      4      1     31       110.2           110.2           0.000    
     66      5      1     31       110.2           110.2           0.000    
     67      4      1     32       110.2           110.2           0.000    
     68      5      1     32       110.2           110.2           0.000    
     69      4      1     33       110.2           110.2           0.000    
     70      5      1     33       110.2           110.2           0.000    
     71      4      1     34       110.2           110.2           0.000    
     72      5      1     34       110.2           110.2           0.000    
     73      4      1     35       110.2           110.2           0.000    
     74      5      1     35       110.2           110.2           0.000    
     75      4     36     35       110.2           110.1           0.000    
     76      5     36     35       110.2           110.1           0.000    
     77      4     35     34       110.2           110.1           0.000    
     78      5     35     34       110.2           110.1           0.000    
     79      4     36     34       110.2           110.1           0.000    
     80      5     36     34       110.2           110.1           0.000    
     81      4     36     33       110.2           110.1           0.000    
     82      5     36     33       110.2           110.1           0.000    
     83      4     36     32       110.2           110.1           0.000    
     84      5     36     32       110.2           110.1           0.000    
     85      4     37     32       110.2           110.1           0.000    
     86      5     37     32       110.2           110.1           0.000    
     87      4     37     31       110.2           110.1           0.000    
     88      5     37     31       110.2           110.1           0.000    
     89      4     38     31       110.2           110.1           0.000    
     90      5     38     31       110.2           110.1           0.000    
     91      4     38     30       110.2           110.1           0.000    
     92      5     38     30       110.2           110.1           0.000    
     93      4     39     30       110.2           110.1           0.000    
     94      5     39     30       110.2           110.1           0.000    
     95      4     39     29       110.2           110.1           0.000    
     96      5     39     29       110.2           110.1           0.000    
     97      4     40     29       110.2           110.1           0.000    
     98      5     40     29       110.2           110.1           0.000    
     99      4     40     28       110.2           110.1           0.000    
    100      5     40     28       110.2           110.1           0.000    
    101      4     40     27       110.1           110.1           0.000    
    102      5     40     27       110.1           110.1           0.000    
    103      4     41     27       110.1           110.1           0.000    
    104      5     41     27       110.1           110.1           0.000    
    105      4     41     26       110.1           110.1           0.000    
    106      5     41     26       110.1           110.1           0.000    
    107      4     41     25       110.1           110.1           0.000    
    108      5     41     25       110.1           110.1           0.000    
    109      4     41     24       110.1           110.1           0.000    
    110      5     41     24       110.1           110.1           0.000    
    111      4     41     23       110.1           110.1           0.000    
    112      5     41     23       110.1           110.1           0.000    
    113      4     41     22       110.1           110.1           0.000    
    114      5     41     22       110.1           110.1           0.000    
    115      4     42     22       110.1           110.1           0.000    
    116      5     42     22       110.1           110.1           0.000    
    117      4     42     21       110.1           110.1           0.000    
    118      5     42     21       110.1           110.1           0.000    
    119      4     42     20       110.1           110.1           0.000    
    120      5     42     20       110.1           110.1           0.000    
    121      4     42     19       110.1           110.1           0.000    
    122      5     42     19       110.1           110.1           0.000    
    123      4     43     18       110.1           110.1           0.000    
    124      5     43     18       110.1           110.1           0.000    
    125      4     42     18       110.1           110.1           0.000    
    126      5     42     18       110.1           110.1           0.000    
    127      4     42     17       110.1           110.1           0.000    
    128      5     42     17       110.1           110.1           0.000    
    129      4     42     16       110.1           110.1           0.000    
    130      5     42     16       110.1           110.1           0.000    
    131      4     42     15       110.1           110.1           0.000    
    132      5     42     15       110.1           110.1           0.000    
    133      4     43     15       110.1           110.1           0.000    
    134      5     43     15       110.1           110.1           0.000    
    135      4     43     14       110.1           110.1           0.000    
    136      5     43     14       110.1           110.1           0.000    
    137      4     43     13       110.1           110.1           0.000    
    138      5     43     13       110.1           110.1           0.000    
    139      4     43     12       110.1           110.1           0.000    
    140      5     43     12       110.1           110.1           0.000    
    141      4     43     11       110.1           110.1           0.000    
    142      5     43     11       110.1           110.1           0.000    
    143      4     43     10       110.1           110.1           0.000    
    144      5     43     10       110.1           110.1           0.000    
    145      4     44     10       110.1           110.1           0.000    
    146      5     44     10       110.1           110.1           0.000    
    147      4     44      9       110.1           110.1           0.000    
    148      5     44      9       110.1           110.1           0.000    
    149      4     44      8       110.1           110.1           0.000    
    150      5     44      8       110.1           110.1           0.000    
    151      4     44      7       110.1           110.1           0.000    
    152      5     44      7       110.1           110.1           0.000    
    153      4     44      6       110.1           110.1           0.000    
    154      5     44      6       110.1           110.1           0.000    
    155      4     44      5       110.1           110.1           0.000    
    156      5     44      5       110.1           110.1           0.000    
    157      4     44      4       110.1           110.1           0.000    
    158      5     44      4       110.1           110.1           0.000    
    159      4     44      3       110.1           110.1           0.000    
    160      5     44      3       110.1           110.1           0.000    
    161      4     45      3       110.1           110.1           0.000    
    162      5     45      3       110.1           110.1           0.000    
    163      4     45      2       110.1           110.1           0.000    
    164      5     45      2       110.1           110.1           0.000    
    165      4     45      1       110.1           110.1           0.000    
    166      5     45      1       110.1           110.1           0.000    


    166 TIME-VARIANT SPECIFIED-HEAD CELLS

 SOLVING FOR HEAD 


     3 CALLS TO PCG ROUTINE FOR TIME STEP   1 IN STRESS PERIOD   90
    57 TOTAL ITERATIONS

 MAXIMUM HEAD CHANGE FOR EACH ITERATION (1 INDICATES THE FIRST INNER ITERATION):

    HEAD CHANGE    HEAD CHANGE    HEAD CHANGE    HEAD CHANGE    HEAD CHANGE 
   LAYER,ROW,COL  LAYER,ROW,COL  LAYER,ROW,COL  LAYER,ROW,COL  LAYER,ROW,COL
 ---------------------------------------------------------------------------
  1 -0.6543E-01  0  0.3751E-01  0 -0.2178E-01  0  0.1854E-01  0 -0.2500E-01
   (  5, 43,  5)  (  5, 35,  1)  (  5, 31,  2)  (  5, 41,  2)  (  5, 37,  1)
  0 -0.1390E-01  0 -0.1513E-01  0  0.1608E-01  0  0.9901E-02  0  0.6869E-02
   (  5, 39,  1)  (  5, 40,  1)  (  5, 37,  1)  (  5, 36,  6)  (  5, 40,  1)
  0  0.6081E-02  0  0.3467E-02  0 -0.2944E-02  0  0.3386E-02  0 -0.3705E-02
   (  5, 35,  9)  (  5, 31,  4)  (  5, 31,  2)  (  5, 31,  9)  (  5, 36,  8)
  0  0.1688E-02  0  0.2031E-02  0 -0.1719E-02  0  0.1375E-02  0 -0.9739E-03
   (  5, 35,  4)  (  5, 34,  9)  (  5, 32,  9)  (  5, 30, 10)  (  5, 28, 10)
  0  0.6819E-03  0 -0.7171E-03  0  0.5234E-03  0 -0.6604E-03  0  0.4720E-03
   (  5, 35,  1)  (  5, 36,  4)  (  5, 32,  4)  (  5, 13,  1)  (  5, 13,  1)
  0  0.3532E-03  0 -0.2231E-03  0  0.1685E-03  0 -0.1540E-03  0 -0.1169E-03
   (  5, 37,  1)  (  5, 39,  2)  (  5, 35,  3)  (  5, 34,  4)  (  5, 41,  2)
  1 -0.7514E-04  0  0.3981E-04  0 -0.7249E-04  0 -0.5143E-04  0  0.5573E-04
   (  5, 38,  6)  (  5, 32,  3)  (  5, 41,  2)  (  5, 34,  3)  (  5, 34,  1)
  0 -0.5195E-04  0 -0.3081E-04  0  0.3983E-04  0 -0.2460E-04  0  0.1974E-04
   (  5, 37,  1)  (  5, 37,  1)  (  5, 38,  2)  (  5, 39,  1)  (  5, 37,  1)
  0 -0.2194E-04  0  0.8699E-05  0  0.1372E-04  0 -0.1114E-04  0  0.8915E-05
   (  5, 39,  2)  (  5, 31,  3)  (  5, 13,  1)  (  5, 40,  2)  (  5, 40,  1)
  0  0.7158E-05  0 -0.4802E-05  0  0.4028E-05  0 -0.4198E-05  0  0.3237E-05
   (  5, 12,  1)  (  5, 35,  2)  (  5, 38,  4)  (  5, 37,  9)  (  5, 37,  7)
  0 -0.1993E-05  0  0.2313E-05  0 -0.1857E-05  0  0.1291E-05  0 -0.1194E-05
   (  5, 29,  1)  (  5, 35,  1)  (  5, 38,  1)  (  5, 41,  5)  (  5, 33,  8)
  0  0.9812E-06  1 -0.4898E-06
   (  5, 32,  9)  (  5, 31,  8)

 MAXIMUM RESIDUAL FOR EACH ITERATION (1 INDICATES THE FIRST INNER ITERATION):

    RESIDUAL       RESIDUAL       RESIDUAL       RESIDUAL       RESIDUAL    
   LAYER,ROW,COL  LAYER,ROW,COL  LAYER,ROW,COL  LAYER,ROW,COL  LAYER,ROW,COL
 ---------------------------------------------------------------------------
  1  0.3147E-03  0  0.2378E-03  0  0.1993E-03  0  0.1704E-03  0  0.1429E-03
   (  4, 44,  2)  (  4, 44,  2)  (  4, 44,  2)  (  4, 35, 35)  (  4, 35, 35)
  0  0.1232E-03  0  0.1045E-03  0  0.8383E-04  0  0.6664E-04  0 -0.5053E-04
   (  3, 40, 27)  (  3, 40, 27)  (  3, 40, 27)  (  3, 40, 27)  (  4, 43,  4)
  0 -0.4118E-04  0 -0.3424E-04  0 -0.3147E-04  0 -0.2441E-04  0 -0.1837E-04
   (  4, 43,  4)  (  4, 43,  4)  (  4, 43,  4)  (  4, 43,  4)  (  4, 43,  4)
  0 -0.1678E-04  0 -0.1461E-04  0 -0.1170E-04  0 -0.9600E-05  0 -0.7415E-05
   (  4, 44,  2)  (  4, 44,  2)  (  4, 44,  2)  (  4, 44,  2)  (  4, 44,  2)
  0 -0.6682E-05  0 -0.5833E-05  0 -0.5544E-05  0 -0.4454E-05  0 -0.3609E-05
   (  4, 34, 35)  (  4, 34, 35)  (  4, 34, 35)  (  4, 34, 35)  (  4, 34, 35)
  0 -0.2867E-05  0 -0.2611E-05  0 -0.2352E-05  0 -0.1890E-05  0 -0.1334E-05
   (  4, 34, 35)  (  4, 34, 35)  (  4, 34, 35)  (  4, 34, 35)  (  4, 34, 35)
  1 -0.1267E-05  0 -0.1248E-05  0 -0.1083E-05  0 -0.9692E-06  0 -0.8453E-06
   (  4, 34, 35)  (  4, 34, 35)  (  4, 34, 35)  (  4, 34, 35)  (  4, 34, 35)
  0 -0.7335E-06  0 -0.6049E-06  0 -0.4817E-06  0 -0.3251E-06  0 -0.2533E-06
   (  4, 34, 35)  (  4, 34, 35)  (  4, 34, 35)  (  4, 34, 35)  (  4, 34, 35)
  0 -0.1850E-06  0 -0.1724E-06  0  0.1283E-06  0  0.9933E-07  0  0.7549E-07
   (  4, 34, 35)  (  4, 34, 35)  (  4, 35, 35)  (  4, 35, 35)  (  4, 35, 35)
  0  0.5589E-07  0  0.4846E-07  0  0.4064E-07  0  0.3041E-07  0  0.2494E-07
   (  4, 35, 35)  (  4, 35, 35)  (  4, 35, 35)  (  4, 35, 35)  (  4, 35, 35)
  0  0.2232E-07  0  0.1711E-07  0  0.1477E-07  0  0.1079E-07  0  0.8155E-08
   (  4, 35, 35)  (  4, 35, 35)  (  4, 35, 35)  (  4, 35, 35)  (  4, 35, 35)
  0  0.5834E-08  1  0.5661E-08
   (  4, 35, 35)  (  4, 35, 35)



 OUTPUT CONTROL FOR STRESS PERIOD   90   TIME STEP    1
    SAVE HEAD FOR ALL LAYERS
    SAVE DRAWDOWN FOR ALL LAYERS
    SAVE BUDGET
    PRINT BUDGET
 UBDSV1 SAVING "         STORAGE" ON UNIT   9 AT TIME STEP  1, STRESS PERIOD  90
 UBDSV2 SAVING "   CONSTANT HEAD" ON UNIT   9 AT TIME STEP  1, STRESS PERIOD  90
 UBDSV1 SAVING "FLOW RIGHT FACE " ON UNIT   9 AT TIME STEP  1, STRESS PERIOD  90
 UBDSV1 SAVING "FLOW FRONT FACE " ON UNIT   9 AT TIME STEP  1, STRESS PERIOD  90
 UBDSV1 SAVING "FLOW LOWER FACE " ON UNIT   9 AT TIME STEP  1, STRESS PERIOD  90
 UBDSV3 SAVING "        RECHARGE" ON UNIT   9 AT TIME STEP  1, STRESS PERIOD  90

 HEAD WILL BE SAVED ON UNIT   37 AT END OF TIME STEP    1, STRESS PERIOD   90

 DRAWDOWN WILL BE SAVED ON UNIT   38 AT END OF TIME STEP    1, STRESS PERIOD   90
1
  VOLUMETRIC BUDGET FOR ENTIRE MODEL AT END OF TIME STEP    1, STRESS PERIOD  90
  ------------------------------------------------------------------------------

     CUMULATIVE VOLUMES      L**3       RATES FOR THIS TIME STEP      L**3/T
     ------------------                 ------------------------

           IN:                                      IN:
           ---                                      ---
             STORAGE =       12896.1777               STORAGE =       3.8549E-04
       CONSTANT HEAD =       23432.1836         CONSTANT HEAD =       8.7748E-04
            RECHARGE =        1076.5194              RECHARGE =       1.0213E-04

            TOTAL IN =       37404.8789              TOTAL IN =       1.3651E-03

          OUT:                                     OUT:
          ----                                     ----
             STORAGE =       10626.4814               STORAGE =           0.0000
       CONSTANT HEAD =       26779.5020         CONSTANT HEAD =       1.3653E-03
            RECHARGE =           0.0000              RECHARGE =           0.0000

           TOTAL OUT =       37405.9844             TOTAL OUT =       1.3653E-03

            IN - OUT =          -1.1055              IN - OUT =      -1.8149E-07

 PERCENT DISCREPANCY =          -0.00     PERCENT DISCREPANCY =          -0.01






         TIME SUMMARY AT END OF TIME STEP    1 IN STRESS PERIOD   90
                    SECONDS     MINUTES      HOURS       DAYS        YEARS
                    -----------------------------------------------------------
   TIME STEP LENGTH  86400.      1440.0      24.000      1.0000     2.73785E-03
 STRESS PERIOD TIME  86400.      1440.0      24.000      1.0000     2.73785E-03
         TOTAL TIME 1.05408E+07 1.75680E+05  2928.0      122.00     0.33402    
1
1
                            STRESS PERIOD NO.   91, LENGTH =   345600.0    
                            -----------------------------------------------

                              NUMBER OF TIME STEPS =     4

                               MULTIPLIER FOR DELT =     1.000

                            INITIAL TIME STEP SIZE =   86400.00    

 REUSING RECH FROM LAST STRESS PERIOD

 CHD NO.   LAYER   ROW   COL    START HEAD        END HEAD         IFACE           
 ----------------------------------------------------------------------------------
      1      4      3      1       110.2           110.3           0.000    
      2      5      3      1       110.2           110.3           0.000    
      3      4      3      2       110.2           110.3           0.000    
      4      5      3      2       110.2           110.3           0.000    
      5      4      3      3       110.2           110.3           0.000    
      6      5      3      3       110.2           110.3           0.000    
      7      4      3      4       110.2           110.3           0.000    
      8      5      3      4       110.2           110.3           0.000    
      9      4      3      5       110.2           110.3           0.000    
     10      5      3      5       110.2           110.3           0.000    
     11      4      3      6       110.2           110.3           0.000    
     12      5      3      6       110.2           110.3           0.000    
     13      4      3      7       110.2           110.3           0.000    
     14      5      3      7       110.2           110.3           0.000    
     15      4      3      8       110.2           110.3           0.000    
     16      5      3      8       110.2           110.3           0.000    
     17      4      2      8       110.2           110.3           0.000    
     18      5      2      8       110.2           110.3           0.000    
     19      4      2      9       110.2           110.3           0.000    
     20      5      2      9       110.2           110.3           0.000    
     21      4      2     10       110.2           110.3           0.000    
     22      5      2     10       110.2           110.3           0.000    
     23      4      2     11       110.2           110.3           0.000    
     24      5      2     11       110.2           110.3           0.000    
     25      4      2     12       110.2           110.3           0.000    
     26      5      2     12       110.2           110.3           0.000    
     27      4      2     13       110.2           110.3           0.000    
     28      5      2     13       110.2           110.3           0.000    
     29      4      2     14       110.2           110.3           0.000    
     30      5      2     14       110.2           110.3           0.000    
     31      4      2     15       110.2           110.3           0.000    
     32      5      2     15       110.2           110.3           0.000    
     33      4      2     16       110.2           110.3           0.000    
     34      5      2     16       110.2           110.3           0.000    
     35      4      2     17       110.2           110.3           0.000    
     36      5      2     17       110.2           110.3           0.000    
     37      4      2     18       110.2           110.3           0.000    
     38      5      2     18       110.2           110.3           0.000    
     39      4      2     19       110.2           110.3           0.000    
     40      5      2     19       110.2           110.3           0.000    
     41      4      2     20       110.2           110.3           0.000    
     42      5      2     20       110.2           110.3           0.000    
     43      4      2     21       110.2           110.3           0.000    
     44      5      2     21       110.2           110.3           0.000    
     45      4      2     22       110.2           110.3           0.000    
     46      5      2     22       110.2           110.3           0.000    
     47      4      2     23       110.2           110.3           0.000    
     48      5      2     23       110.2           110.3           0.000    
     49      4      2     24       110.2           110.3           0.000    
     50      5      2     24       110.2           110.3           0.000    
     51      4      2     25       110.2           110.3           0.000    
     52      5      2     25       110.2           110.3           0.000    
     53      4      2     26       110.2           110.3           0.000    
     54      5      2     26       110.2           110.3           0.000    
     55      4      1     26       110.2           110.3           0.000    
     56      5      1     26       110.2           110.3           0.000    
     57      4      1     27       110.2           110.3           0.000    
     58      5      1     27       110.2           110.3           0.000    
     59      4      1     28       110.2           110.3           0.000    
     60      5      1     28       110.2           110.3           0.000    
     61      4      1     29       110.2           110.3           0.000    
     62      5      1     29       110.2           110.3           0.000    
     63      4      1     30       110.2           110.3           0.000    
     64      5      1     30       110.2           110.3           0.000    
     65      4      1     31       110.2           110.3           0.000    
     66      5      1     31       110.2           110.3           0.000    
     67      4      1     32       110.2           110.3           0.000    
     68      5      1     32       110.2           110.3           0.000    
     69      4      1     33       110.2           110.3           0.000    
     70      5      1     33       110.2           110.3           0.000    
     71      4      1     34       110.2           110.3           0.000    
     72      5      1     34       110.2           110.3           0.000    
     73      4      1     35       110.2           110.3           0.000    
     74      5      1     35       110.2           110.3           0.000    
     75      4     36     35       110.1           110.3           0.000    
     76      5     36     35       110.1           110.3           0.000    
     77      4     35     34       110.1           110.3           0.000    
     78      5     35     34       110.1           110.3           0.000    
     79      4     36     34       110.1           110.3           0.000    
     80      5     36     34       110.1           110.3           0.000    
     81      4     36     33       110.1           110.3           0.000    
     82      5     36     33       110.1           110.3           0.000    
     83      4     36     32       110.1           110.3           0.000    
     84      5     36     32       110.1           110.3           0.000    
     85      4     37     32       110.1           110.3           0.000    
     86      5     37     32       110.1           110.3           0.000    
     87      4     37     31       110.1           110.3           0.000    
     88      5     37     31       110.1           110.3           0.000    
     89      4     38     31       110.1           110.3           0.000    
     90      5     38     31       110.1           110.3           0.000    
     91      4     38     30       110.1           110.3           0.000    
     92      5     38     30       110.1           110.3           0.000    
     93      4     39     30       110.1           110.3           0.000    
     94      5     39     30       110.1           110.3           0.000    
     95      4     39     29       110.1           110.3           0.000    
     96      5     39     29       110.1           110.3           0.000    
     97      4     40     29       110.1           110.3           0.000    
     98      5     40     29       110.1           110.3           0.000    
     99      4     40     28       110.1           110.3           0.000    
    100      5     40     28       110.1           110.3           0.000    
    101      4     40     27       110.1           110.3           0.000    
    102      5     40     27       110.1           110.3           0.000    
    103      4     41     27       110.1           110.3           0.000    
    104      5     41     27       110.1           110.3           0.000    
    105      4     41     26       110.1           110.3           0.000    
    106      5     41     26       110.1           110.3           0.000    
    107      4     41     25       110.1           110.3           0.000    
    108      5     41     25       110.1           110.3           0.000    
    109      4     41     24       110.1           110.2           0.000    
    110      5     41     24       110.1           110.2           0.000    
    111      4     41     23       110.1           110.2           0.000    
    112      5     41     23       110.1           110.2           0.000    
    113      4     41     22       110.1           110.2           0.000    
    114      5     41     22       110.1           110.2           0.000    
    115      4     42     22       110.1           110.2           0.000    
    116      5     42     22       110.1           110.2           0.000    
    117      4     42     21       110.1           110.2           0.000    
    118      5     42     21       110.1           110.2           0.000    
    119      4     42     20       110.1           110.2           0.000    
    120      5     42     20       110.1           110.2           0.000    
    121      4     42     19       110.1           110.2           0.000    
    122      5     42     19       110.1           110.2           0.000    
    123      4     43     18       110.1           110.2           0.000    
    124      5     43     18       110.1           110.2           0.000    
    125      4     42     18       110.1           110.2           0.000    
    126      5     42     18       110.1           110.2           0.000    
    127      4     42     17       110.1           110.2           0.000    
    128      5     42     17       110.1           110.2           0.000    
    129      4     42     16       110.1           110.2           0.000    
    130      5     42     16       110.1           110.2           0.000    
    131      4     42     15       110.1           110.2           0.000    
    132      5     42     15       110.1           110.2           0.000    
    133      4     43     15       110.1           110.2           0.000    
    134      5     43     15       110.1           110.2           0.000    
    135      4     43     14       110.1           110.2           0.000    
    136      5     43     14       110.1           110.2           0.000    
    137      4     43     13       110.1           110.2           0.000    
    138      5     43     13       110.1           110.2           0.000    
    139      4     43     12       110.1           110.2           0.000    
    140      5     43     12       110.1           110.2           0.000    
    141      4     43     11       110.1           110.2           0.000    
    142      5     43     11       110.1           110.2           0.000    
    143      4     43     10       110.1           110.2           0.000    
    144      5     43     10       110.1           110.2           0.000    
    145      4     44     10       110.1           110.2           0.000    
    146      5     44     10       110.1           110.2           0.000    
    147      4     44      9       110.1           110.2           0.000    
    148      5     44      9       110.1           110.2           0.000    
    149      4     44      8       110.1           110.2           0.000    
    150      5     44      8       110.1           110.2           0.000    
    151      4     44      7       110.1           110.2           0.000    
    152      5     44      7       110.1           110.2           0.000    
    153      4     44      6       110.1           110.2           0.000    
    154      5     44      6       110.1           110.2           0.000    
    155      4     44      5       110.1           110.2           0.000    
    156      5     44      5       110.1           110.2           0.000    
    157      4     44      4       110.1           110.2           0.000    
    158      5     44      4       110.1           110.2           0.000    
    159      4     44      3       110.1           110.2           0.000    
    160      5     44      3       110.1           110.2           0.000    
    161      4     45      3       110.1           110.2           0.000    
    162      5     45      3       110.1           110.2           0.000    
    163      4     45      2       110.1           110.2           0.000    
    164      5     45      2       110.1           110.2           0.000    
    165      4     45      1       110.1           110.2           0.000    
    166      5     45      1       110.1           110.2           0.000    


    166 TIME-VARIANT SPECIFIED-HEAD CELLS

 SOLVING FOR HEAD 


     3 CALLS TO PCG ROUTINE FOR TIME STEP   1 IN STRESS PERIOD   91
    58 TOTAL ITERATIONS

 MAXIMUM HEAD CHANGE FOR EACH ITERATION (1 INDICATES THE FIRST INNER ITERATION):

    HEAD CHANGE    HEAD CHANGE    HEAD CHANGE    HEAD CHANGE    HEAD CHANGE 
   LAYER,ROW,COL  LAYER,ROW,COL  LAYER,ROW,COL  LAYER,ROW,COL  LAYER,ROW,COL
 ---------------------------------------------------------------------------
  1  0.9357E-01  0 -0.5269E-01  0  0.3052E-01  0 -0.2596E-01  0  0.3535E-01
   (  5, 43,  5)  (  5, 35,  1)  (  5, 31,  2)  (  5, 41,  2)  (  5, 37,  1)
  0  0.1883E-01  0  0.2250E-01  0 -0.2439E-01  0 -0.1386E-01  0 -0.1075E-01
   (  5, 39,  1)  (  5, 40,  1)  (  5, 37,  1)  (  5, 37,  6)  (  5, 40,  2)
  0 -0.9016E-02  0  0.7496E-02  0  0.3342E-02  0 -0.5455E-02  0  0.4119E-02
   (  5, 35,  9)  (  5, 33,  9)  (  5, 31,  2)  (  5, 31,  9)  (  5, 36,  8)
  0 -0.2698E-02  0 -0.3375E-02  0  0.2184E-02  0 -0.1632E-02  0 -0.1534E-02
   (  5, 37,  1)  (  5, 34,  9)  (  5, 31,  9)  (  5, 30, 10)  (  5, 38,  4)
  0  0.1351E-02  0 -0.8325E-03  0  0.4644E-03  0  0.9526E-03  0 -0.7083E-03
   (  5, 37,  1)  (  5, 14,  1)  (  5, 29,  1)  (  5, 13,  1)  (  5, 13,  1)
  0  0.4157E-03  0 -0.3165E-03  0 -0.2527E-03  0  0.2522E-03  0  0.1719E-03
   (  5, 39,  2)  (  5, 37,  1)  (  5, 38,  1)  (  5, 40,  2)  (  5, 12,  1)
  1  0.1078E-03  0 -0.8829E-04  0  0.9647E-04  0  0.8407E-04  0  0.5034E-04
   (  5, 32,  5)  (  5, 33,  1)  (  5, 35,  3)  (  5, 37,  1)  (  5, 37,  1)
  0 -0.7366E-04  0  0.4082E-04  0  0.4284E-04  0  0.3751E-04  0 -0.3212E-04
   (  5, 39,  2)  (  5, 35,  2)  (  5, 32,  8)  (  5, 39,  1)  (  5, 41,  2)
  0 -0.2553E-04  0  0.1928E-04  0 -0.1852E-04  0 -0.1243E-04  0  0.1212E-04
   (  5, 35,  4)  (  5, 31,  4)  (  5, 40,  4)  (  5, 32,  8)  (  5, 34,  9)
  0 -0.9347E-05  0  0.5613E-05  0 -0.8559E-05  0 -0.5953E-05  0  0.4346E-05
   (  5, 29,  9)  (  5, 36,  1)  (  5, 37,  4)  (  5, 39,  1)  (  5, 41,  2)
  0  0.2603E-05  0 -0.2990E-05  0 -0.2132E-05  0  0.2989E-05  0 -0.1641E-05
   (  5, 32,  1)  (  5, 32,  5)  (  5, 36,  1)  (  5, 38,  1)  (  5, 40,  6)
  0 -0.1170E-05  0  0.9460E-06  1 -0.7204E-06
   (  5, 40,  1)  (  5, 36,  7)  (  5, 36,  8)

 MAXIMUM RESIDUAL FOR EACH ITERATION (1 INDICATES THE FIRST INNER ITERATION):

    RESIDUAL       RESIDUAL       RESIDUAL       RESIDUAL       RESIDUAL    
   LAYER,ROW,COL  LAYER,ROW,COL  LAYER,ROW,COL  LAYER,ROW,COL  LAYER,ROW,COL
 ---------------------------------------------------------------------------
  1 -0.4768E-03  0 -0.3633E-03  0 -0.3071E-03  0 -0.2643E-03  0 -0.2224E-03
   (  4, 44,  2)  (  4, 44,  2)  (  4, 44,  2)  (  4, 35, 35)  (  4, 35, 35)
  0 -0.1902E-03  0 -0.1612E-03  0 -0.1289E-03  0 -0.1036E-03  0 -0.7938E-04
   (  3, 40, 27)  (  3, 40, 27)  (  3, 40, 27)  (  3, 40, 27)  (  3, 40, 27)
  0 -0.5971E-04  0  0.4787E-04  0  0.4576E-04  0  0.3712E-04  0  0.3102E-04
   (  4, 35, 35)  (  3, 35, 35)  (  3, 35, 35)  (  3, 35, 35)  (  3, 35, 35)
  0  0.2736E-04  0  0.2121E-04  0  0.1629E-04  0  0.1345E-04  0  0.1192E-04
   (  3, 35, 35)  (  3, 35, 35)  (  4, 44,  2)  (  4, 44,  2)  (  4, 34, 35)
  0  0.1061E-04  0  0.8796E-05  0  0.8533E-05  0  0.6847E-05  0  0.5514E-05
   (  4, 34, 35)  (  4, 34, 35)  (  4, 34, 35)  (  4, 34, 35)  (  4, 34, 35)
  0  0.4640E-05  0  0.4187E-05  0  0.3728E-05  0  0.2886E-05  0  0.2034E-05
   (  4, 34, 35)  (  4, 34, 35)  (  4, 34, 35)  (  4, 34, 35)  (  4, 34, 35)
  1  0.1965E-05  0  0.1889E-05  0  0.1588E-05  0  0.1438E-05  0  0.1241E-05
   (  4, 34, 35)  (  4, 34, 35)  (  4, 34, 35)  (  4, 34, 35)  (  4, 34, 35)
  0  0.1088E-05  0  0.9553E-06  0  0.7322E-06  0  0.5285E-06  0  0.4094E-06
   (  4, 34, 35)  (  4, 34, 35)  (  4, 34, 35)  (  4, 34, 35)  (  4, 34, 35)
  0  0.3299E-06  0  0.2942E-06  0 -0.2140E-06  0 -0.1712E-06  0 -0.1348E-06
   (  4, 34, 35)  (  4, 34, 35)  (  4, 35, 35)  (  4, 35, 35)  (  4, 35, 35)
  0 -0.1024E-06  0 -0.9213E-07  0 -0.7488E-07  0 -0.5601E-07  0 -0.4184E-07
   (  4, 35, 35)  (  4, 35, 35)  (  4, 35, 35)  (  4, 35, 35)  (  4, 35, 35)
  0 -0.3613E-07  0 -0.3024E-07  0 -0.2658E-07  0 -0.1983E-07  0 -0.1437E-07
   (  4, 35, 35)  (  4, 35, 35)  (  4, 35, 35)  (  4, 35, 35)  (  4, 35, 35)
  0 -0.1064E-07  0 -0.8182E-08  1 -0.7727E-08
   (  4, 35, 35)  (  4, 35, 35)  (  4, 35, 35)



 OUTPUT CONTROL FOR STRESS PERIOD   91   TIME STEP    1
    SAVE HEAD FOR ALL LAYERS
    SAVE DRAWDOWN FOR ALL LAYERS
    SAVE BUDGET
    PRINT BUDGET
 UBDSV1 SAVING "         STORAGE" ON UNIT   9 AT TIME STEP  1, STRESS PERIOD  91
 UBDSV2 SAVING "   CONSTANT HEAD" ON UNIT   9 AT TIME STEP  1, STRESS PERIOD  91
 UBDSV1 SAVING "FLOW RIGHT FACE " ON UNIT   9 AT TIME STEP  1, STRESS PERIOD  91
 UBDSV1 SAVING "FLOW FRONT FACE " ON UNIT   9 AT TIME STEP  1, STRESS PERIOD  91
 UBDSV1 SAVING "FLOW LOWER FACE " ON UNIT   9 AT TIME STEP  1, STRESS PERIOD  91
 UBDSV3 SAVING "        RECHARGE" ON UNIT   9 AT TIME STEP  1, STRESS PERIOD  91

 HEAD WILL BE SAVED ON UNIT   37 AT END OF TIME STEP    1, STRESS PERIOD   91

 DRAWDOWN WILL BE SAVED ON UNIT   38 AT END OF TIME STEP    1, STRESS PERIOD   91
1
  VOLUMETRIC BUDGET FOR ENTIRE MODEL AT END OF TIME STEP    1, STRESS PERIOD  91
  ------------------------------------------------------------------------------

     CUMULATIVE VOLUMES      L**3       RATES FOR THIS TIME STEP      L**3/T
     ------------------                 ------------------------

           IN:                                      IN:
           ---                                      ---
             STORAGE =       12896.1777               STORAGE =           0.0000
       CONSTANT HEAD =       23521.0527         CONSTANT HEAD =       1.0286E-03
            RECHARGE =        1085.3434              RECHARGE =       1.0213E-04

            TOTAL IN =       37502.5742              TOTAL IN =       1.1307E-03

          OUT:                                     OUT:
          ----                                     ----
             STORAGE =       10673.6660               STORAGE =       5.4611E-04
       CONSTANT HEAD =       26830.0117         CONSTANT HEAD =       5.8460E-04
            RECHARGE =           0.0000              RECHARGE =           0.0000

           TOTAL OUT =       37503.6797             TOTAL OUT =       1.1307E-03

            IN - OUT =          -1.1055              IN - OUT =      -4.5402E-09

 PERCENT DISCREPANCY =          -0.00     PERCENT DISCREPANCY =          -0.00






         TIME SUMMARY AT END OF TIME STEP    1 IN STRESS PERIOD   91
                    SECONDS     MINUTES      HOURS       DAYS        YEARS
                    -----------------------------------------------------------
   TIME STEP LENGTH  86400.      1440.0      24.000      1.0000     2.73785E-03
 STRESS PERIOD TIME  86400.      1440.0      24.000      1.0000     2.73785E-03
         TOTAL TIME 1.06272E+07 1.77120E+05  2952.0      123.00     0.33676    
1

 SOLVING FOR HEAD 
     3 CALLS TO PCG ROUTINE FOR TIME STEP   2 IN STRESS PERIOD   91
    58 TOTAL ITERATIONS

 MAXIMUM HEAD CHANGE FOR EACH ITERATION (1 INDICATES THE FIRST INNER ITERATION):

    HEAD CHANGE    HEAD CHANGE    HEAD CHANGE    HEAD CHANGE    HEAD CHANGE 
   LAYER,ROW,COL  LAYER,ROW,COL  LAYER,ROW,COL  LAYER,ROW,COL  LAYER,ROW,COL
 ---------------------------------------------------------------------------
  1  0.9685E-01  0 -0.5232E-01  0  0.3046E-01  0 -0.2688E-01  0  0.3404E-01
   (  5, 43,  5)  (  5, 35,  1)  (  5, 30,  2)  (  5, 41,  2)  (  5, 37,  1)
  0  0.1982E-01  0  0.2279E-01  0 -0.2460E-01  0 -0.1380E-01  0 -0.1112E-01
   (  5, 39,  1)  (  5, 40,  1)  (  5, 37,  1)  (  5, 37,  6)  (  5, 40,  2)
  0 -0.9438E-02  0 -0.4733E-02  0  0.8625E-02  0 -0.6067E-02  0  0.4463E-02
   (  5, 35,  9)  (  5, 29,  2)  (  5, 33,  9)  (  5, 30,  9)  (  5, 36,  9)
  0  0.2640E-02  0 -0.2494E-02  0 -0.2249E-02  0 -0.1594E-02  0 -0.1473E-02
   (  5, 35,  2)  (  5, 37,  1)  (  5, 15,  1)  (  5, 30, 10)  (  5, 36,  7)
  0 -0.1001E-02  0  0.8167E-03  0 -0.1079E-02  0  0.9632E-03  0 -0.7196E-03
   (  5, 37,  3)  (  5, 29,  2)  (  5, 32,  4)  (  5, 13,  1)  (  5, 13,  1)
  0 -0.5304E-03  0  0.3214E-03  0 -0.2606E-03  0  0.1447E-03  0 -0.1471E-03
   (  5, 37,  1)  (  5, 40,  2)  (  5, 38,  1)  (  5, 35,  1)  (  5, 34,  6)
  1  0.7933E-04  0 -0.1169E-03  0  0.8099E-04  0 -0.9544E-04  0  0.5267E-04
   (  5, 30,  2)  (  5, 34,  1)  (  5, 35,  3)  (  5, 38,  4)  (  5, 37,  1)
  0 -0.4189E-04  0  0.6314E-04  0 -0.5825E-04  0  0.5979E-04  0 -0.3150E-04
   (  5, 25,  7)  (  5, 39,  5)  (  5, 37,  1)  (  5, 40,  1)  (  5, 33,  7)
  0  0.1898E-04  0 -0.1961E-04  0 -0.1740E-04  0  0.1393E-04  0 -0.1346E-04
   (  5, 31,  4)  (  5, 34,  3)  (  5, 40,  4)  (  5, 40,  2)  (  5, 39,  1)
  0 -0.9380E-05  0  0.9218E-05  0 -0.6978E-05  0 -0.5460E-05  0 -0.3124E-05
   (  5, 33,  1)  (  5, 37,  1)  (  5, 37,  4)  (  5, 39,  1)  (  5, 30,  2)
  0  0.4061E-05  0 -0.3212E-05  0 -0.2230E-05  0  0.3125E-05  0 -0.1746E-05
   (  5, 36,  9)  (  5, 39, 10)  (  5, 35,  1)  (  5, 38,  1)  (  5, 40,  6)
  0  0.1506E-05  0 -0.8058E-06  1 -0.5861E-06
   (  5, 42,  6)  (  5, 32,  7)  (  5, 33,  2)

 MAXIMUM RESIDUAL FOR EACH ITERATION (1 INDICATES THE FIRST INNER ITERATION):

    RESIDUAL       RESIDUAL       RESIDUAL       RESIDUAL       RESIDUAL    
   LAYER,ROW,COL  LAYER,ROW,COL  LAYER,ROW,COL  LAYER,ROW,COL  LAYER,ROW,COL
 ---------------------------------------------------------------------------
  1 -0.4639E-03  0 -0.3521E-03  0 -0.2987E-03  0 -0.2702E-03  0 -0.2287E-03
   (  4, 44,  2)  (  4, 44,  2)  (  4, 35, 35)  (  4, 35, 35)  (  4, 35, 35)
  0 -0.1930E-03  0 -0.1610E-03  0 -0.1277E-03  0 -0.1020E-03  0 -0.7790E-04
   (  4, 35, 35)  (  3, 40, 27)  (  3, 40, 27)  (  3, 40, 27)  (  3, 40, 27)
  0  0.6076E-04  0  0.5675E-04  0  0.4833E-04  0  0.3896E-04  0  0.3012E-04
   (  3, 35, 35)  (  3, 35, 35)  (  3, 35, 35)  (  3, 35, 35)  (  3, 35, 35)
  0  0.2738E-04  0  0.2201E-04  0  0.1659E-04  0  0.1371E-04  0  0.1138E-04
   (  3, 35, 35)  (  4, 43,  4)  (  4, 44,  2)  (  4, 44,  2)  (  4, 34, 35)
  0  0.1068E-04  0  0.1006E-04  0  0.8653E-05  0  0.6881E-05  0  0.5473E-05
   (  4, 34, 35)  (  4, 34, 35)  (  4, 34, 35)  (  4, 34, 35)  (  4, 34, 35)
  0  0.4345E-05  0  0.3882E-05  0  0.2935E-05  0  0.2775E-05  0  0.2011E-05
   (  4, 34, 35)  (  4, 34, 35)  (  4, 34, 35)  (  4, 34, 35)  (  4, 34, 35)
  1  0.2001E-05  0  0.1868E-05  0  0.1796E-05  0  0.1522E-05  0  0.1203E-05
   (  4, 34, 35)  (  4, 34, 35)  (  4, 34, 35)  (  4, 34, 35)  (  4, 34, 35)
  0  0.1073E-05  0  0.8780E-06  0  0.7399E-06  0  0.5457E-06  0  0.4118E-06
   (  4, 34, 35)  (  4, 34, 35)  (  4, 34, 35)  (  4, 34, 35)  (  4, 34, 35)
  0  0.3829E-06  0  0.2994E-06  0 -0.2120E-06  0 -0.1662E-06  0 -0.1334E-06
   (  4, 34, 35)  (  4, 34, 35)  (  4, 35, 35)  (  4, 35, 35)  (  4, 35, 35)
  0 -0.1161E-06  0 -0.9482E-07  0 -0.7297E-07  0 -0.5407E-07  0 -0.4920E-07
   (  4, 35, 35)  (  4, 35, 35)  (  4, 35, 35)  (  4, 35, 35)  (  4, 35, 35)
  0 -0.3865E-07  0 -0.2833E-07  0 -0.2483E-07  0 -0.1907E-07  0 -0.1396E-07
   (  4, 35, 35)  (  4, 35, 35)  (  4, 35, 35)  (  4, 35, 35)  (  4, 35, 35)
  0 -0.1002E-07  0 -0.8339E-08  1 -0.8247E-08
   (  4, 35, 35)  (  4, 35, 35)  (  4, 35, 35)



 OUTPUT CONTROL FOR STRESS PERIOD   91   TIME STEP    2
    SAVE HEAD FOR ALL LAYERS
    SAVE DRAWDOWN FOR ALL LAYERS
    SAVE BUDGET
    PRINT BUDGET
 UBDSV1 SAVING "         STORAGE" ON UNIT   9 AT TIME STEP  2, STRESS PERIOD  91
 UBDSV2 SAVING "   CONSTANT HEAD" ON UNIT   9 AT TIME STEP  2, STRESS PERIOD  91
 UBDSV1 SAVING "FLOW RIGHT FACE " ON UNIT   9 AT TIME STEP  2, STRESS PERIOD  91
 UBDSV1 SAVING "FLOW FRONT FACE " ON UNIT   9 AT TIME STEP  2, STRESS PERIOD  91
 UBDSV1 SAVING "FLOW LOWER FACE " ON UNIT   9 AT TIME STEP  2, STRESS PERIOD  91
 UBDSV3 SAVING "        RECHARGE" ON UNIT   9 AT TIME STEP  2, STRESS PERIOD  91

 HEAD WILL BE SAVED ON UNIT   37 AT END OF TIME STEP    2, STRESS PERIOD   91

 DRAWDOWN WILL BE SAVED ON UNIT   38 AT END OF TIME STEP    2, STRESS PERIOD   91
1
  VOLUMETRIC BUDGET FOR ENTIRE MODEL AT END OF TIME STEP    2, STRESS PERIOD  91
  ------------------------------------------------------------------------------

     CUMULATIVE VOLUMES      L**3       RATES FOR THIS TIME STEP      L**3/T
     ------------------                 ------------------------

           IN:                                      IN:
           ---                                      ---
             STORAGE =       12896.1777               STORAGE =           0.0000
       CONSTANT HEAD =       23609.0938         CONSTANT HEAD =       1.0190E-03
            RECHARGE =        1094.1674              RECHARGE =       1.0213E-04

            TOTAL IN =       37599.4414              TOTAL IN =       1.1211E-03

          OUT:                                     OUT:
          ----                                     ----
             STORAGE =       10741.7314               STORAGE =       7.8779E-04
       CONSTANT HEAD =       26858.8105         CONSTANT HEAD =       3.3332E-04
            RECHARGE =           0.0000              RECHARGE =           0.0000

           TOTAL OUT =       37600.5430             TOTAL OUT =       1.1211E-03

            IN - OUT =          -1.1016              IN - OUT =       6.2864E-09

 PERCENT DISCREPANCY =          -0.00     PERCENT DISCREPANCY =           0.00






         TIME SUMMARY AT END OF TIME STEP    2 IN STRESS PERIOD   91
                    SECONDS     MINUTES      HOURS       DAYS        YEARS
                    -----------------------------------------------------------
   TIME STEP LENGTH  86400.      1440.0      24.000      1.0000     2.73785E-03
 STRESS PERIOD TIME 1.72800E+05  2880.0      48.000      2.0000     5.47570E-03
         TOTAL TIME 1.07136E+07 1.78560E+05  2976.0      124.00     0.33949    
1

 SOLVING FOR HEAD 
     3 CALLS TO PCG ROUTINE FOR TIME STEP   3 IN STRESS PERIOD   91
    57 TOTAL ITERATIONS

 MAXIMUM HEAD CHANGE FOR EACH ITERATION (1 INDICATES THE FIRST INNER ITERATION):

    HEAD CHANGE    HEAD CHANGE    HEAD CHANGE    HEAD CHANGE    HEAD CHANGE 
   LAYER,ROW,COL  LAYER,ROW,COL  LAYER,ROW,COL  LAYER,ROW,COL  LAYER,ROW,COL
 ---------------------------------------------------------------------------
  1  0.9787E-01  0 -0.5213E-01  0  0.3038E-01  0 -0.2708E-01  0  0.3332E-01
   (  5, 43,  5)  (  5, 35,  1)  (  5, 30,  2)  (  5, 41,  2)  (  5, 37,  1)
  0  0.2062E-01  0  0.2291E-01  0 -0.2440E-01  0 -0.1376E-01  0 -0.1105E-01
   (  5, 39,  1)  (  5, 40,  1)  (  5, 37,  1)  (  5, 37,  6)  (  5, 40,  2)
  0 -0.9800E-02  0 -0.5195E-02  0  0.7193E-02  0 -0.6120E-02  0  0.4513E-02
   (  5, 35,  9)  (  5, 28,  2)  (  5, 33,  9)  (  5, 30,  9)  (  5, 36,  9)
  0  0.2980E-02  0 -0.2335E-02  0 -0.2257E-02  0  0.1541E-02  0 -0.1359E-02
   (  5, 34,  1)  (  5, 35,  4)  (  5, 15,  1)  (  5, 38,  7)  (  5, 36,  7)
  0 -0.8339E-03  0  0.1096E-02  0 -0.7673E-03  0  0.8970E-03  0 -0.7240E-03
   (  5, 32,  4)  (  5, 36,  4)  (  5, 35,  1)  (  5, 13,  1)  (  5, 13,  1)
  0  0.4000E-03  0  0.3282E-03  0 -0.1644E-03  0  0.2436E-03  0 -0.1536E-03
   (  5, 12,  1)  (  5, 39,  4)  (  5, 36,  3)  (  5, 34,  4)  (  5, 31,  3)
  1  0.1203E-03  0 -0.1005E-03  0  0.9616E-04  0 -0.1333E-03  0  0.1027E-03
   (  5, 29,  3)  (  5, 34,  4)  (  5, 37,  1)  (  5, 39,  1)  (  5, 37,  1)
  0  0.6122E-04  0 -0.4376E-04  0 -0.3644E-04  0  0.4862E-04  0 -0.4380E-04
   (  5, 40,  5)  (  5, 30,  9)  (  5, 38,  5)  (  5, 39,  1)  (  5, 37,  1)
  0  0.2890E-04  0 -0.2325E-04  0  0.2274E-04  0 -0.1580E-04  0 -0.1248E-04
   (  5, 31,  5)  (  5, 34,  3)  (  5, 29,  8)  (  5, 29,  7)  (  5, 33,  1)
  0  0.1142E-04  0 -0.1114E-04  0  0.1088E-04  0 -0.6500E-05  0  0.3552E-05
   (  5, 32,  9)  (  5, 34,  8)  (  5, 37,  8)  (  5, 36,  6)  (  5, 31,  1)
  0 -0.3590E-05  0  0.4207E-05  0 -0.3636E-05  0 -0.2225E-05  0  0.1748E-05
   (  5, 31,  5)  (  5, 38,  1)  (  5, 40,  1)  (  5, 37,  5)  (  5, 34,  1)
  0  0.9371E-06  1 -0.8347E-06
   (  5, 26,  4)  (  5, 25,  4)

 MAXIMUM RESIDUAL FOR EACH ITERATION (1 INDICATES THE FIRST INNER ITERATION):

    RESIDUAL       RESIDUAL       RESIDUAL       RESIDUAL       RESIDUAL    
   LAYER,ROW,COL  LAYER,ROW,COL  LAYER,ROW,COL  LAYER,ROW,COL  LAYER,ROW,COL
 ---------------------------------------------------------------------------
  1 -0.4599E-03  0 -0.3490E-03  0 -0.3010E-03  0 -0.2725E-03  0 -0.2313E-03
   (  4, 44,  2)  (  4, 44,  2)  (  4, 35, 35)  (  4, 35, 35)  (  4, 35, 35)
  0 -0.1945E-03  0 -0.1609E-03  0 -0.1276E-03  0 -0.1017E-03  0 -0.7761E-04
   (  4, 35, 35)  (  3, 40, 27)  (  3, 40, 27)  (  3, 40, 27)  (  3, 40, 27)
  0  0.6152E-04  0  0.5573E-04  0  0.4902E-04  0  0.3942E-04  0  0.3007E-04
   (  3, 35, 35)  (  3, 35, 35)  (  3, 35, 35)  (  3, 35, 35)  (  3, 35, 35)
  0  0.2488E-04  0  0.2218E-04  0  0.1671E-04  0  0.1379E-04  0  0.1124E-04
   (  4, 43,  4)  (  4, 43,  4)  (  4, 44,  2)  (  4, 44,  2)  (  4, 34, 35)
  0  0.1082E-04  0  0.9213E-05  0  0.8564E-05  0  0.6892E-05  0  0.5456E-05
   (  4, 34, 35)  (  4, 34, 35)  (  4, 34, 35)  (  4, 34, 35)  (  4, 34, 35)
  0  0.4166E-05  0  0.3165E-05  0  0.2962E-05  0  0.2528E-05  0  0.2238E-05
   (  4, 34, 35)  (  4, 34, 35)  (  4, 34, 35)  (  4, 34, 35)  (  4, 34, 35)
  1  0.2227E-05  0  0.2181E-05  0  0.2074E-05  0  0.1850E-05  0  0.1481E-05
   (  4, 34, 35)  (  4, 34, 35)  (  4, 34, 35)  (  4, 34, 35)  (  4, 34, 35)
  0  0.1097E-05  0  0.8038E-06  0  0.6715E-06  0  0.5603E-06  0  0.4369E-06
   (  4, 34, 35)  (  4, 34, 35)  (  4, 34, 35)  (  4, 34, 35)  (  4, 34, 35)
  0  0.3643E-06  0  0.3071E-06  0 -0.2296E-06  0 -0.1972E-06  0 -0.1787E-06
   (  4, 34, 35)  (  4, 34, 35)  (  4, 35, 35)  (  4, 35, 35)  (  4, 35, 35)
  0 -0.1373E-06  0 -0.9787E-07  0 -0.7433E-07  0 -0.5539E-07  0 -0.4777E-07
   (  4, 35, 35)  (  4, 35, 35)  (  4, 35, 35)  (  4, 35, 35)  (  4, 35, 35)
  0 -0.4015E-07  0 -0.2982E-07  0 -0.2213E-07  0 -0.1764E-07  0 -0.1538E-07
   (  4, 35, 35)  (  4, 35, 35)  (  4, 35, 35)  (  4, 35, 35)  (  4, 35, 35)
  0 -0.1364E-07  1 -0.1347E-07
   (  4, 35, 35)  (  4, 35, 35)



 OUTPUT CONTROL FOR STRESS PERIOD   91   TIME STEP    3
    SAVE HEAD FOR ALL LAYERS
    SAVE DRAWDOWN FOR ALL LAYERS
    SAVE BUDGET
    PRINT BUDGET
 UBDSV1 SAVING "         STORAGE" ON UNIT   9 AT TIME STEP  3, STRESS PERIOD  91
 UBDSV2 SAVING "   CONSTANT HEAD" ON UNIT   9 AT TIME STEP  3, STRESS PERIOD  91
 UBDSV1 SAVING "FLOW RIGHT FACE " ON UNIT   9 AT TIME STEP  3, STRESS PERIOD  91
 UBDSV1 SAVING "FLOW FRONT FACE " ON UNIT   9 AT TIME STEP  3, STRESS PERIOD  91
 UBDSV1 SAVING "FLOW LOWER FACE " ON UNIT   9 AT TIME STEP  3, STRESS PERIOD  91
 UBDSV3 SAVING "        RECHARGE" ON UNIT   9 AT TIME STEP  3, STRESS PERIOD  91

 HEAD WILL BE SAVED ON UNIT   37 AT END OF TIME STEP    3, STRESS PERIOD   91

 DRAWDOWN WILL BE SAVED ON UNIT   38 AT END OF TIME STEP    3, STRESS PERIOD   91
1
  VOLUMETRIC BUDGET FOR ENTIRE MODEL AT END OF TIME STEP    3, STRESS PERIOD  91
  ------------------------------------------------------------------------------

     CUMULATIVE VOLUMES      L**3       RATES FOR THIS TIME STEP      L**3/T
     ------------------                 ------------------------

           IN:                                      IN:
           ---                                      ---
             STORAGE =       12896.1777               STORAGE =           0.0000
       CONSTANT HEAD =       23693.0293         CONSTANT HEAD =       9.7147E-04
            RECHARGE =        1102.9913              RECHARGE =       1.0213E-04

            TOTAL IN =       37692.1992              TOTAL IN =       1.0736E-03

          OUT:                                     OUT:
          ----                                     ----
             STORAGE =       10816.2676               STORAGE =       8.6269E-04
       CONSTANT HEAD =       26877.0293         CONSTANT HEAD =       2.1087E-04
            RECHARGE =           0.0000              RECHARGE =           0.0000

           TOTAL OUT =       37693.2969             TOTAL OUT =       1.0736E-03

            IN - OUT =          -1.0977              IN - OUT =       4.2724E-08

 PERCENT DISCREPANCY =          -0.00     PERCENT DISCREPANCY =           0.00






         TIME SUMMARY AT END OF TIME STEP    3 IN STRESS PERIOD   91
                    SECONDS     MINUTES      HOURS       DAYS        YEARS
                    -----------------------------------------------------------
   TIME STEP LENGTH  86400.      1440.0      24.000      1.0000     2.73785E-03
 STRESS PERIOD TIME 2.59200E+05  4320.0      72.000      3.0000     8.21355E-03
         TOTAL TIME 1.08000E+07 1.80000E+05  3000.0      125.00     0.34223    
1

 SOLVING FOR HEAD 
     3 CALLS TO PCG ROUTINE FOR TIME STEP   4 IN STRESS PERIOD   91
    59 TOTAL ITERATIONS

 MAXIMUM HEAD CHANGE FOR EACH ITERATION (1 INDICATES THE FIRST INNER ITERATION):

    HEAD CHANGE    HEAD CHANGE    HEAD CHANGE    HEAD CHANGE    HEAD CHANGE 
   LAYER,ROW,COL  LAYER,ROW,COL  LAYER,ROW,COL  LAYER,ROW,COL  LAYER,ROW,COL
 ---------------------------------------------------------------------------
  1  0.9818E-01  0 -0.5203E-01  0  0.3034E-01  0 -0.2713E-01  0  0.3304E-01
   (  5, 43,  5)  (  5, 35,  1)  (  5, 30,  2)  (  5, 41,  2)  (  5, 37,  1)
  0  0.2094E-01  0  0.2293E-01  0 -0.2430E-01  0 -0.1375E-01  0 -0.1102E-01
   (  5, 39,  1)  (  5, 40,  1)  (  5, 37,  1)  (  5, 37,  6)  (  5, 40,  2)
  0 -0.9657E-02  0 -0.4618E-02  0  0.8968E-02  0 -0.6224E-02  0 -0.3692E-02
   (  5, 35,  9)  (  5, 29,  2)  (  5, 33,  9)  (  5, 30,  9)  (  5, 37,  1)
  0  0.2997E-02  0 -0.2496E-02  0 -0.2267E-02  0 -0.1614E-02  0 -0.1582E-02
   (  5, 35,  2)  (  5, 27, 11)  (  5, 15,  1)  (  5, 39,  1)  (  5, 36,  7)
  0  0.8877E-03  0 -0.7589E-03  0  0.1046E-02  0  0.9556E-03  0 -0.7205E-03
   (  5, 29,  2)  (  5, 32,  4)  (  5, 36,  4)  (  5, 13,  1)  (  5, 13,  1)
  0  0.3921E-03  0 -0.3168E-03  0 -0.3002E-03  0  0.2551E-03  0 -0.1603E-03
   (  5, 34,  1)  (  5, 37,  1)  (  5, 38,  1)  (  5, 40,  2)  (  5, 31,  4)
  1  0.9833E-04  0 -0.1017E-03  0  0.1132E-03  0  0.7669E-04  0 -0.7451E-04
   (  5, 30,  2)  (  5, 34,  1)  (  5, 37,  1)  (  5, 34,  3)  (  5, 34,  1)
  0  0.8071E-04  0  0.4660E-04  0 -0.5381E-04  0  0.3892E-04  0 -0.2724E-04
   (  5, 37,  1)  (  5, 36,  2)  (  5, 37,  1)  (  5, 39,  1)  (  5, 32,  9)
  0 -0.1537E-04  0  0.2607E-04  0  0.2038E-04  0  0.1306E-04  0  0.1204E-04
   (  5, 27,  1)  (  5, 30,  9)  (  5, 39,  1)  (  5, 35,  4)  (  5, 37,  1)
  0 -0.9254E-05  0 -0.5792E-05  0  0.6967E-05  0 -0.5503E-05  0  0.2659E-05
   (  5, 39,  1)  (  5, 37,  4)  (  5, 41,  1)  (  5, 33,  3)  (  5, 31,  1)
  0  0.4131E-05  0 -0.3426E-05  0  0.2422E-05  0  0.2366E-05  0 -0.1875E-05
   (  5, 41,  2)  (  5, 36,  1)  (  5, 38,  1)  (  5, 35,  6)  (  5, 40,  2)
  0  0.1450E-05  0 -0.1169E-05  0 -0.7917E-06  1 -0.4021E-06
   (  5, 41,  5)  (  5, 37,  1)  (  5, 43,  7)  (  5, 33,  1)

 MAXIMUM RESIDUAL FOR EACH ITERATION (1 INDICATES THE FIRST INNER ITERATION):

    RESIDUAL       RESIDUAL       RESIDUAL       RESIDUAL       RESIDUAL    
   LAYER,ROW,COL  LAYER,ROW,COL  LAYER,ROW,COL  LAYER,ROW,COL  LAYER,ROW,COL
 ---------------------------------------------------------------------------
  1 -0.4586E-03  0 -0.3481E-03  0 -0.3017E-03  0 -0.2732E-03  0 -0.2321E-03
   (  4, 44,  2)  (  4, 44,  2)  (  4, 35, 35)  (  4, 35, 35)  (  4, 35, 35)
  0 -0.1950E-03  0 -0.1608E-03  0 -0.1276E-03  0 -0.1017E-03  0 -0.7755E-04
   (  4, 35, 35)  (  3, 40, 27)  (  3, 40, 27)  (  3, 40, 27)  (  3, 40, 27)
  0  0.6185E-04  0  0.5809E-04  0  0.4927E-04  0  0.3959E-04  0  0.3181E-04
   (  3, 35, 35)  (  3, 35, 35)  (  3, 35, 35)  (  3, 35, 35)  (  3, 35, 35)
  0  0.2853E-04  0  0.2231E-04  0  0.1675E-04  0  0.1385E-04  0  0.1147E-04
   (  3, 35, 35)  (  4, 43,  4)  (  4, 44,  2)  (  4, 44,  2)  (  4, 34, 35)
  0  0.1069E-04  0  0.1010E-04  0  0.8686E-05  0  0.6903E-05  0  0.5462E-05
   (  4, 34, 35)  (  4, 34, 35)  (  4, 34, 35)  (  4, 34, 35)  (  4, 34, 35)
  0  0.4552E-05  0  0.4061E-05  0  0.3369E-05  0  0.2777E-05  0  0.2033E-05
   (  4, 34, 35)  (  4, 34, 35)  (  4, 34, 35)  (  4, 34, 35)  (  4, 34, 35)
  1  0.2025E-05  0  0.1869E-05  0  0.1574E-05  0  0.1437E-05  0  0.1292E-05
   (  4, 34, 35)  (  4, 34, 35)  (  4, 34, 35)  (  4, 34, 35)  (  4, 34, 35)
  0  0.1052E-05  0  0.8855E-06  0  0.7146E-06  0  0.5249E-06  0  0.4108E-06
   (  4, 34, 35)  (  4, 34, 35)  (  4, 34, 35)  (  4, 34, 35)  (  4, 34, 35)
  0  0.3824E-06  0  0.2835E-06  0 -0.2083E-06  0 -0.1663E-06  0 -0.1312E-06
   (  4, 34, 35)  (  4, 34, 35)  (  4, 35, 35)  (  4, 35, 35)  (  4, 35, 35)
  0 -0.9549E-07  0 -0.8808E-07  0 -0.6663E-07  0 -0.5014E-07  0 -0.4728E-07
   (  4, 35, 35)  (  4, 35, 35)  (  4, 35, 35)  (  4, 35, 35)  (  4, 35, 35)
  0 -0.3678E-07  0 -0.2787E-07  0 -0.2444E-07  0 -0.1816E-07  0 -0.1390E-07
   (  4, 35, 35)  (  4, 35, 35)  (  4, 35, 35)  (  4, 35, 35)  (  4, 35, 35)
  0 -0.1087E-07  0 -0.9000E-08  0 -0.6106E-08  1 -0.6050E-08
   (  4, 35, 35)  (  4, 35, 35)  (  3, 36, 35)  (  3, 36, 35)



 OUTPUT CONTROL FOR STRESS PERIOD   91   TIME STEP    4
    SAVE HEAD FOR ALL LAYERS
    SAVE DRAWDOWN FOR ALL LAYERS
    SAVE BUDGET
    PRINT BUDGET
 UBDSV1 SAVING "         STORAGE" ON UNIT   9 AT TIME STEP  4, STRESS PERIOD  91
 UBDSV2 SAVING "   CONSTANT HEAD" ON UNIT   9 AT TIME STEP  4, STRESS PERIOD  91
 UBDSV1 SAVING "FLOW RIGHT FACE " ON UNIT   9 AT TIME STEP  4, STRESS PERIOD  91
 UBDSV1 SAVING "FLOW FRONT FACE " ON UNIT   9 AT TIME STEP  4, STRESS PERIOD  91
 UBDSV1 SAVING "FLOW LOWER FACE " ON UNIT   9 AT TIME STEP  4, STRESS PERIOD  91
 UBDSV3 SAVING "        RECHARGE" ON UNIT   9 AT TIME STEP  4, STRESS PERIOD  91

 HEAD WILL BE SAVED ON UNIT   37 AT END OF TIME STEP    4, STRESS PERIOD   91

 DRAWDOWN WILL BE SAVED ON UNIT   38 AT END OF TIME STEP    4, STRESS PERIOD   91
1
  VOLUMETRIC BUDGET FOR ENTIRE MODEL AT END OF TIME STEP    4, STRESS PERIOD  91
  ------------------------------------------------------------------------------

     CUMULATIVE VOLUMES      L**3       RATES FOR THIS TIME STEP      L**3/T
     ------------------                 ------------------------

           IN:                                      IN:
           ---                                      ---
             STORAGE =       12896.1777               STORAGE =           0.0000
       CONSTANT HEAD =       23772.9453         CONSTANT HEAD =       9.2495E-04
            RECHARGE =        1111.8153              RECHARGE =       1.0213E-04

            TOTAL IN =       37780.9414              TOTAL IN =       1.0271E-03

          OUT:                                     OUT:
          ----                                     ----
             STORAGE =       10892.8867               STORAGE =       8.8680E-04
       CONSTANT HEAD =       26889.1484         CONSTANT HEAD =       1.4028E-04
            RECHARGE =           0.0000              RECHARGE =           0.0000

           TOTAL OUT =       37782.0352             TOTAL OUT =       1.0271E-03

            IN - OUT =          -1.0938              IN - OUT =       8.3819E-09

 PERCENT DISCREPANCY =          -0.00     PERCENT DISCREPANCY =           0.00






         TIME SUMMARY AT END OF TIME STEP    4 IN STRESS PERIOD   91
                    SECONDS     MINUTES      HOURS       DAYS        YEARS
                    -----------------------------------------------------------
   TIME STEP LENGTH  86400.      1440.0      24.000      1.0000     2.73785E-03
 STRESS PERIOD TIME 3.45600E+05  5760.0      96.000      4.0000     1.09514E-02
         TOTAL TIME 1.08864E+07 1.81440E+05  3024.0      126.00     0.34497    
1
1
                            STRESS PERIOD NO.   92, LENGTH =   86400.00    
                            -----------------------------------------------

                              NUMBER OF TIME STEPS =     1

                               MULTIPLIER FOR DELT =     1.000

                            INITIAL TIME STEP SIZE =   86400.00    

 REUSING RECH FROM LAST STRESS PERIOD

 CHD NO.   LAYER   ROW   COL    START HEAD        END HEAD         IFACE           
 ----------------------------------------------------------------------------------
      1      4      3      1       110.3           110.3           0.000    
      2      5      3      1       110.3           110.3           0.000    
      3      4      3      2       110.3           110.3           0.000    
      4      5      3      2       110.3           110.3           0.000    
      5      4      3      3       110.3           110.3           0.000    
      6      5      3      3       110.3           110.3           0.000    
      7      4      3      4       110.3           110.3           0.000    
      8      5      3      4       110.3           110.3           0.000    
      9      4      3      5       110.3           110.3           0.000    
     10      5      3      5       110.3           110.3           0.000    
     11      4      3      6       110.3           110.3           0.000    
     12      5      3      6       110.3           110.3           0.000    
     13      4      3      7       110.3           110.3           0.000    
     14      5      3      7       110.3           110.3           0.000    
     15      4      3      8       110.3           110.3           0.000    
     16      5      3      8       110.3           110.3           0.000    
     17      4      2      8       110.3           110.3           0.000    
     18      5      2      8       110.3           110.3           0.000    
     19      4      2      9       110.3           110.3           0.000    
     20      5      2      9       110.3           110.3           0.000    
     21      4      2     10       110.3           110.3           0.000    
     22      5      2     10       110.3           110.3           0.000    
     23      4      2     11       110.3           110.3           0.000    
     24      5      2     11       110.3           110.3           0.000    
     25      4      2     12       110.3           110.3           0.000    
     26      5      2     12       110.3           110.3           0.000    
     27      4      2     13       110.3           110.3           0.000    
     28      5      2     13       110.3           110.3           0.000    
     29      4      2     14       110.3           110.3           0.000    
     30      5      2     14       110.3           110.3           0.000    
     31      4      2     15       110.3           110.3           0.000    
     32      5      2     15       110.3           110.3           0.000    
     33      4      2     16       110.3           110.3           0.000    
     34      5      2     16       110.3           110.3           0.000    
     35      4      2     17       110.3           110.3           0.000    
     36      5      2     17       110.3           110.3           0.000    
     37      4      2     18       110.3           110.3           0.000    
     38      5      2     18       110.3           110.3           0.000    
     39      4      2     19       110.3           110.3           0.000    
     40      5      2     19       110.3           110.3           0.000    
     41      4      2     20       110.3           110.3           0.000    
     42      5      2     20       110.3           110.3           0.000    
     43      4      2     21       110.3           110.3           0.000    
     44      5      2     21       110.3           110.3           0.000    
     45      4      2     22       110.3           110.3           0.000    
     46      5      2     22       110.3           110.3           0.000    
     47      4      2     23       110.3           110.3           0.000    
     48      5      2     23       110.3           110.3           0.000    
     49      4      2     24       110.3           110.3           0.000    
     50      5      2     24       110.3           110.3           0.000    
     51      4      2     25       110.3           110.3           0.000    
     52      5      2     25       110.3           110.3           0.000    
     53      4      2     26       110.3           110.3           0.000    
     54      5      2     26       110.3           110.3           0.000    
     55      4      1     26       110.3           110.3           0.000    
     56      5      1     26       110.3           110.3           0.000    
     57      4      1     27       110.3           110.3           0.000    
     58      5      1     27       110.3           110.3           0.000    
     59      4      1     28       110.3           110.3           0.000    
     60      5      1     28       110.3           110.3           0.000    
     61      4      1     29       110.3           110.3           0.000    
     62      5      1     29       110.3           110.3           0.000    
     63      4      1     30       110.3           110.3           0.000    
     64      5      1     30       110.3           110.3           0.000    
     65      4      1     31       110.3           110.3           0.000    
     66      5      1     31       110.3           110.3           0.000    
     67      4      1     32       110.3           110.3           0.000    
     68      5      1     32       110.3           110.3           0.000    
     69      4      1     33       110.3           110.3           0.000    
     70      5      1     33       110.3           110.3           0.000    
     71      4      1     34       110.3           110.3           0.000    
     72      5      1     34       110.3           110.3           0.000    
     73      4      1     35       110.3           110.3           0.000    
     74      5      1     35       110.3           110.3           0.000    
     75      4     36     35       110.3           109.9           0.000    
     76      5     36     35       110.3           109.9           0.000    
     77      4     35     34       110.3           109.9           0.000    
     78      5     35     34       110.3           109.9           0.000    
     79      4     36     34       110.3           109.9           0.000    
     80      5     36     34       110.3           109.9           0.000    
     81      4     36     33       110.3           109.9           0.000    
     82      5     36     33       110.3           109.9           0.000    
     83      4     36     32       110.3           109.9           0.000    
     84      5     36     32       110.3           109.9           0.000    
     85      4     37     32       110.3           109.9           0.000    
     86      5     37     32       110.3           109.9           0.000    
     87      4     37     31       110.3           109.9           0.000    
     88      5     37     31       110.3           109.9           0.000    
     89      4     38     31       110.3           109.9           0.000    
     90      5     38     31       110.3           109.9           0.000    
     91      4     38     30       110.3           109.9           0.000    
     92      5     38     30       110.3           109.9           0.000    
     93      4     39     30       110.3           109.9           0.000    
     94      5     39     30       110.3           109.9           0.000    
     95      4     39     29       110.3           109.9           0.000    
     96      5     39     29       110.3           109.9           0.000    
     97      4     40     29       110.3           109.9           0.000    
     98      5     40     29       110.3           109.9           0.000    
     99      4     40     28       110.3           109.9           0.000    
    100      5     40     28       110.3           109.9           0.000    
    101      4     40     27       110.3           109.9           0.000    
    102      5     40     27       110.3           109.9           0.000    
    103      4     41     27       110.3           109.9           0.000    
    104      5     41     27       110.3           109.9           0.000    
    105      4     41     26       110.3           109.9           0.000    
    106      5     41     26       110.3           109.9           0.000    
    107      4     41     25       110.3           109.9           0.000    
    108      5     41     25       110.3           109.9           0.000    
    109      4     41     24       110.2           109.9           0.000    
    110      5     41     24       110.2           109.9           0.000    
    111      4     41     23       110.2           109.9           0.000    
    112      5     41     23       110.2           109.9           0.000    
    113      4     41     22       110.2           109.9           0.000    
    114      5     41     22       110.2           109.9           0.000    
    115      4     42     22       110.2           109.9           0.000    
    116      5     42     22       110.2           109.9           0.000    
    117      4     42     21       110.2           109.9           0.000    
    118      5     42     21       110.2           109.9           0.000    
    119      4     42     20       110.2           109.9           0.000    
    120      5     42     20       110.2           109.9           0.000    
    121      4     42     19       110.2           109.9           0.000    
    122      5     42     19       110.2           109.9           0.000    
    123      4     43     18       110.2           109.9           0.000    
    124      5     43     18       110.2           109.9           0.000    
    125      4     42     18       110.2           109.9           0.000    
    126      5     42     18       110.2           109.9           0.000    
    127      4     42     17       110.2           109.9           0.000    
    128      5     42     17       110.2           109.9           0.000    
    129      4     42     16       110.2           109.9           0.000    
    130      5     42     16       110.2           109.9           0.000    
    131      4     42     15       110.2           109.9           0.000    
    132      5     42     15       110.2           109.9           0.000    
    133      4     43     15       110.2           109.9           0.000    
    134      5     43     15       110.2           109.9           0.000    
    135      4     43     14       110.2           109.9           0.000    
    136      5     43     14       110.2           109.9           0.000    
    137      4     43     13       110.2           109.9           0.000    
    138      5     43     13       110.2           109.9           0.000    
    139      4     43     12       110.2           109.9           0.000    
    140      5     43     12       110.2           109.9           0.000    
    141      4     43     11       110.2           109.9           0.000    
    142      5     43     11       110.2           109.9           0.000    
    143      4     43     10       110.2           109.9           0.000    
    144      5     43     10       110.2           109.9           0.000    
    145      4     44     10       110.2           109.9           0.000    
    146      5     44     10       110.2           109.9           0.000    
    147      4     44      9       110.2           109.9           0.000    
    148      5     44      9       110.2           109.9           0.000    
    149      4     44      8       110.2           109.9           0.000    
    150      5     44      8       110.2           109.9           0.000    
    151      4     44      7       110.2           109.9           0.000    
    152      5     44      7       110.2           109.9           0.000    
    153      4     44      6       110.2           109.9           0.000    
    154      5     44      6       110.2           109.9           0.000    
    155      4     44      5       110.2           109.9           0.000    
    156      5     44      5       110.2           109.9           0.000    
    157      4     44      4       110.2           109.9           0.000    
    158      5     44      4       110.2           109.9           0.000    
    159      4     44      3       110.2           109.9           0.000    
    160      5     44      3       110.2           109.9           0.000    
    161      4     45      3       110.2           109.9           0.000    
    162      5     45      3       110.2           109.9           0.000    
    163      4     45      2       110.2           109.9           0.000    
    164      5     45      2       110.2           109.9           0.000    
    165      4     45      1       110.2           109.9           0.000    
    166      5     45      1       110.2           109.9           0.000    


    166 TIME-VARIANT SPECIFIED-HEAD CELLS

 SOLVING FOR HEAD 


     4 CALLS TO PCG ROUTINE FOR TIME STEP   1 IN STRESS PERIOD   92
    79 TOTAL ITERATIONS

 MAXIMUM HEAD CHANGE FOR EACH ITERATION (1 INDICATES THE FIRST INNER ITERATION):

    HEAD CHANGE    HEAD CHANGE    HEAD CHANGE    HEAD CHANGE    HEAD CHANGE 
   LAYER,ROW,COL  LAYER,ROW,COL  LAYER,ROW,COL  LAYER,ROW,COL  LAYER,ROW,COL
 ---------------------------------------------------------------------------
  1  -1.048      0  0.5807      0 -0.3369      0  0.2921      0 -0.3839    
   (  5, 43,  5)  (  5, 35,  1)  (  5, 30,  2)  (  5, 41,  2)  (  5, 37,  1)
  0 -0.2123      0 -0.2509      0  0.2706      0  0.1531      0  0.1201    
   (  5, 39,  1)  (  5, 40,  1)  (  5, 37,  1)  (  5, 37,  6)  (  5, 40,  2)
  0  0.1033      0 -0.7767E-01  0 -0.4102E-01  0  0.6146E-01  0 -0.4574E-01
   (  5, 35,  9)  (  5, 33, 10)  (  5, 31,  2)  (  5, 31,  9)  (  5, 36,  8)
  0  0.2907E-01  0  0.3395E-01  0  0.2401E-01  0  0.1904E-01  0  0.1672E-01
   (  5, 37,  1)  (  5, 34,  9)  (  5, 15,  1)  (  5, 30, 10)  (  5, 36,  7)
  0  0.1112E-01  0  0.1208E-01  0 -0.4593E-02  0 -0.1026E-01  0  0.8094E-02
   (  5, 39,  4)  (  5, 32,  4)  (  5, 30,  1)  (  5, 13,  1)  (  5, 13,  1)
  0 -0.4171E-02  0  0.3983E-02  0 -0.3610E-02  0  0.2625E-02  0 -0.1901E-02
   (  5, 33,  1)  (  5, 37,  1)  (  5, 39,  2)  (  5, 38,  1)  (  5, 36,  1)
  1 -0.1928E-02  0  0.1521E-02  0 -0.2327E-02  0 -0.1122E-02  0  0.1194E-02
   (  5, 40,  5)  (  5, 31,  3)  (  5, 34,  3)  (  5, 23,  3)  (  5, 30,  7)
  0  0.1616E-02  0 -0.1050E-02  0  0.1179E-02  0 -0.7886E-03  0  0.6282E-03
   (  5, 34,  2)  (  5, 38,  3)  (  5, 37,  1)  (  5, 39,  1)  (  5, 37,  1)
  0 -0.5271E-03  0  0.2127E-03  0  0.2826E-03  0  0.2818E-03  0  0.1932E-03
   (  5, 39,  1)  (  5, 30,  3)  (  5, 41,  2)  (  5, 14,  1)  (  5, 25, 11)
  0 -0.2306E-03  0  0.1197E-03  0  0.7623E-04  0 -0.9502E-04  0 -0.6916E-04
   (  5, 14,  1)  (  5, 12,  1)  (  5, 37,  4)  (  5, 30, 11)  (  5, 36,  9)
  0 -0.3290E-04  0  0.4957E-04  0  0.4717E-04  0 -0.3582E-04  0 -0.2376E-04
   (  5, 35,  7)  (  5, 37,  7)  (  5, 36,  1)  (  5, 38,  1)  (  5, 28, 12)
  0  0.2046E-04  0  0.2021E-04  0 -0.1345E-04  0 -0.9216E-05  0  0.1078E-04
   (  5, 40,  1)  (  5, 37,  1)  (  5, 40,  2)  (  5, 28,  3)  (  5, 43,  6)
  1 -0.9204E-05  0  0.1656E-04  0 -0.9461E-05  0  0.1601E-04  0 -0.1265E-04
   (  5, 36,  1)  (  5, 34,  3)  (  5, 29,  3)  (  5, 39,  1)  (  5, 38,  1)
  0  0.9970E-05  0 -0.5051E-05  0 -0.4931E-05  0  0.2837E-05  0 -0.3371E-05
   (  5, 35,  1)  (  5, 26,  6)  (  5, 30,  8)  (  5, 36,  5)  (  5, 36,  6)
  0 -0.2102E-05  0 -0.1872E-05  0  0.1948E-05  0 -0.2026E-05  0 -0.1391E-05
   (  5, 16,  1)  (  5, 30,  1)  (  5, 34,  6)  (  5, 34,  8)  (  5, 36,  4)
  0  0.1041E-05  0 -0.1052E-05  0 -0.8560E-06  1 -0.4686E-06
   (  5, 36,  2)  (  2, 43,  7)  (  5, 34,  6)  (  5, 12,  1)

 MAXIMUM RESIDUAL FOR EACH ITERATION (1 INDICATES THE FIRST INNER ITERATION):

    RESIDUAL       RESIDUAL       RESIDUAL       RESIDUAL       RESIDUAL    
   LAYER,ROW,COL  LAYER,ROW,COL  LAYER,ROW,COL  LAYER,ROW,COL  LAYER,ROW,COL
 ---------------------------------------------------------------------------
  1  0.5472E-02  0  0.4193E-02  0  0.3559E-02  0  0.3070E-02  0  0.2604E-02
   (  4, 44,  2)  (  4, 44,  2)  (  4, 44,  2)  (  4, 35, 35)  (  4, 35, 35)
  0  0.2217E-02  0  0.1884E-02  0  0.1509E-02  0  0.1215E-02  0  0.9366E-03
   (  4, 35, 35)  (  3, 40, 27)  (  3, 40, 27)  (  3, 40, 27)  (  3, 40, 27)
  0  0.7028E-03  0 -0.5646E-03  0 -0.5341E-03  0 -0.4344E-03  0 -0.3590E-03
   (  3, 40, 27)  (  3, 35, 35)  (  3, 35, 35)  (  3, 35, 35)  (  3, 35, 35)
  0 -0.3201E-03  0 -0.2478E-03  0 -0.1832E-03  0 -0.1563E-03  0 -0.1321E-03
   (  3, 35, 35)  (  3, 35, 35)  (  4, 34, 35)  (  4, 34, 35)  (  4, 34, 35)
  0 -0.1187E-03  0 -0.1049E-03  0 -0.1015E-03  0 -0.8165E-04  0 -0.6554E-04
   (  4, 34, 35)  (  4, 34, 35)  (  4, 34, 35)  (  4, 34, 35)  (  4, 34, 35)
  0 -0.5721E-04  0 -0.5047E-04  0 -0.4537E-04  0 -0.3384E-04  0 -0.2379E-04
   (  4, 34, 35)  (  4, 34, 35)  (  4, 34, 35)  (  4, 34, 35)  (  4, 34, 35)
  1 -0.2147E-04  0 -0.2043E-04  0 -0.1523E-04  0 -0.1347E-04  0 -0.1123E-04
   (  4, 34, 35)  (  4, 34, 35)  (  4, 34, 35)  (  4, 34, 35)  (  4, 34, 35)
  0 -0.8828E-05  0 -0.7610E-05  0 -0.6173E-05  0  0.5382E-05  0  0.4661E-05
   (  4, 34, 35)  (  4, 34, 35)  (  4, 34, 35)  (  4, 35, 35)  (  4, 35, 35)
  0  0.4139E-05  0  0.3959E-05  0  0.3429E-05  0  0.2872E-05  0  0.2273E-05
   (  4, 35, 35)  (  4, 35, 35)  (  4, 35, 35)  (  4, 35, 35)  (  4, 35, 35)
  0  0.1708E-05  0  0.1309E-05  0  0.1204E-05  0  0.9259E-06  0  0.7502E-06
   (  4, 35, 35)  (  4, 35, 35)  (  4, 35, 35)  (  4, 35, 35)  (  4, 35, 35)
  0  0.7052E-06  0  0.5629E-06  0  0.4880E-06  0  0.3688E-06  0  0.2775E-06
   (  4, 35, 35)  (  4, 35, 35)  (  4, 35, 35)  (  4, 35, 35)  (  4, 35, 35)
  0  0.2120E-06  0  0.1644E-06  0  0.1389E-06  0  0.1198E-06  0  0.9151E-07
   (  4, 35, 35)  (  4, 35, 35)  (  4, 35, 35)  (  4, 35, 35)  (  4, 35, 35)
  1  0.8873E-07  0  0.7750E-07  0  0.7294E-07  0  0.5328E-07  0  0.4544E-07
   (  4, 35, 35)  (  4, 35, 35)  (  4, 35, 35)  (  4, 35, 35)  (  4, 35, 35)
  0  0.4086E-07  0  0.3895E-07  0  0.3586E-07  0  0.3273E-07  0  0.2845E-07
   (  4, 35, 35)  (  4, 35, 35)  (  4, 35, 35)  (  4, 35, 35)  (  4, 35, 35)
  0  0.2421E-07  0  0.2183E-07  0  0.1919E-07  0  0.1540E-07  0  0.1292E-07
   (  4, 35, 35)  (  4, 35, 35)  (  4, 35, 35)  (  4, 35, 35)  (  4, 35, 35)
  0  0.1061E-07  0  0.7637E-08  0  0.5113E-08  1  0.4879E-08
   (  4, 35, 35)  (  4, 35, 35)  (  4, 35, 35)  (  4, 35, 35)



 OUTPUT CONTROL FOR STRESS PERIOD   92   TIME STEP    1
    SAVE HEAD FOR ALL LAYERS
    SAVE DRAWDOWN FOR ALL LAYERS
    SAVE BUDGET
    PRINT BUDGET
 UBDSV1 SAVING "         STORAGE" ON UNIT   9 AT TIME STEP  1, STRESS PERIOD  92
 UBDSV2 SAVING "   CONSTANT HEAD" ON UNIT   9 AT TIME STEP  1, STRESS PERIOD  92
 UBDSV1 SAVING "FLOW RIGHT FACE " ON UNIT   9 AT TIME STEP  1, STRESS PERIOD  92
 UBDSV1 SAVING "FLOW FRONT FACE " ON UNIT   9 AT TIME STEP  1, STRESS PERIOD  92
 UBDSV1 SAVING "FLOW LOWER FACE " ON UNIT   9 AT TIME STEP  1, STRESS PERIOD  92
 UBDSV3 SAVING "        RECHARGE" ON UNIT   9 AT TIME STEP  1, STRESS PERIOD  92

 HEAD WILL BE SAVED ON UNIT   37 AT END OF TIME STEP    1, STRESS PERIOD   92

 DRAWDOWN WILL BE SAVED ON UNIT   38 AT END OF TIME STEP    1, STRESS PERIOD   92
1
  VOLUMETRIC BUDGET FOR ENTIRE MODEL AT END OF TIME STEP    1, STRESS PERIOD  92
  ------------------------------------------------------------------------------

     CUMULATIVE VOLUMES      L**3       RATES FOR THIS TIME STEP      L**3/T
     ------------------                 ------------------------

           IN:                                      IN:
           ---                                      ---
             STORAGE =       13390.5957               STORAGE =       5.7224E-03
       CONSTANT HEAD =       23958.2676         CONSTANT HEAD =       2.1449E-03
            RECHARGE =        1120.6393              RECHARGE =       1.0213E-04

            TOTAL IN =       38469.5039              TOTAL IN =       7.9695E-03

          OUT:                                     OUT:
          ----                                     ----
             STORAGE =       10892.8867               STORAGE =           0.0000
       CONSTANT HEAD =       27577.7246         CONSTANT HEAD =       7.9696E-03
            RECHARGE =           0.0000              RECHARGE =           0.0000

           TOTAL OUT =       38470.6094             TOTAL OUT =       7.9696E-03

            IN - OUT =          -1.1055              IN - OUT =      -1.3039E-07

 PERCENT DISCREPANCY =          -0.00     PERCENT DISCREPANCY =          -0.00






         TIME SUMMARY AT END OF TIME STEP    1 IN STRESS PERIOD   92
                    SECONDS     MINUTES      HOURS       DAYS        YEARS
                    -----------------------------------------------------------
   TIME STEP LENGTH  86400.      1440.0      24.000      1.0000     2.73785E-03
 STRESS PERIOD TIME  86400.      1440.0      24.000      1.0000     2.73785E-03
         TOTAL TIME 1.09728E+07 1.82880E+05  3048.0      127.00     0.34771    
1
1
                            STRESS PERIOD NO.   93, LENGTH =   86400.00    
                            -----------------------------------------------

                              NUMBER OF TIME STEPS =     1

                               MULTIPLIER FOR DELT =     1.000

                            INITIAL TIME STEP SIZE =   86400.00    

 REUSING RECH FROM LAST STRESS PERIOD

 CHD NO.   LAYER   ROW   COL    START HEAD        END HEAD         IFACE           
 ----------------------------------------------------------------------------------
      1      4      3      1       110.3           110.1           0.000    
      2      5      3      1       110.3           110.1           0.000    
      3      4      3      2       110.3           110.1           0.000    
      4      5      3      2       110.3           110.1           0.000    
      5      4      3      3       110.3           110.1           0.000    
      6      5      3      3       110.3           110.1           0.000    
      7      4      3      4       110.3           110.1           0.000    
      8      5      3      4       110.3           110.1           0.000    
      9      4      3      5       110.3           110.1           0.000    
     10      5      3      5       110.3           110.1           0.000    
     11      4      3      6       110.3           110.1           0.000    
     12      5      3      6       110.3           110.1           0.000    
     13      4      3      7       110.3           110.1           0.000    
     14      5      3      7       110.3           110.1           0.000    
     15      4      3      8       110.3           110.1           0.000    
     16      5      3      8       110.3           110.1           0.000    
     17      4      2      8       110.3           110.1           0.000    
     18      5      2      8       110.3           110.1           0.000    
     19      4      2      9       110.3           110.1           0.000    
     20      5      2      9       110.3           110.1           0.000    
     21      4      2     10       110.3           110.1           0.000    
     22      5      2     10       110.3           110.1           0.000    
     23      4      2     11       110.3           110.1           0.000    
     24      5      2     11       110.3           110.1           0.000    
     25      4      2     12       110.3           110.1           0.000    
     26      5      2     12       110.3           110.1           0.000    
     27      4      2     13       110.3           110.1           0.000    
     28      5      2     13       110.3           110.1           0.000    
     29      4      2     14       110.3           110.1           0.000    
     30      5      2     14       110.3           110.1           0.000    
     31      4      2     15       110.3           110.1           0.000    
     32      5      2     15       110.3           110.1           0.000    
     33      4      2     16       110.3           110.1           0.000    
     34      5      2     16       110.3           110.1           0.000    
     35      4      2     17       110.3           110.1           0.000    
     36      5      2     17       110.3           110.1           0.000    
     37      4      2     18       110.3           110.1           0.000    
     38      5      2     18       110.3           110.1           0.000    
     39      4      2     19       110.3           110.1           0.000    
     40      5      2     19       110.3           110.1           0.000    
     41      4      2     20       110.3           110.1           0.000    
     42      5      2     20       110.3           110.1           0.000    
     43      4      2     21       110.3           110.1           0.000    
     44      5      2     21       110.3           110.1           0.000    
     45      4      2     22       110.3           110.1           0.000    
     46      5      2     22       110.3           110.1           0.000    
     47      4      2     23       110.3           110.1           0.000    
     48      5      2     23       110.3           110.1           0.000    
     49      4      2     24       110.3           110.1           0.000    
     50      5      2     24       110.3           110.1           0.000    
     51      4      2     25       110.3           110.1           0.000    
     52      5      2     25       110.3           110.1           0.000    
     53      4      2     26       110.3           110.1           0.000    
     54      5      2     26       110.3           110.1           0.000    
     55      4      1     26       110.3           110.1           0.000    
     56      5      1     26       110.3           110.1           0.000    
     57      4      1     27       110.3           110.1           0.000    
     58      5      1     27       110.3           110.1           0.000    
     59      4      1     28       110.3           110.1           0.000    
     60      5      1     28       110.3           110.1           0.000    
     61      4      1     29       110.3           110.1           0.000    
     62      5      1     29       110.3           110.1           0.000    
     63      4      1     30       110.3           110.1           0.000    
     64      5      1     30       110.3           110.1           0.000    
     65      4      1     31       110.3           110.1           0.000    
     66      5      1     31       110.3           110.1           0.000    
     67      4      1     32       110.3           110.1           0.000    
     68      5      1     32       110.3           110.1           0.000    
     69      4      1     33       110.3           110.1           0.000    
     70      5      1     33       110.3           110.1           0.000    
     71      4      1     34       110.3           110.1           0.000    
     72      5      1     34       110.3           110.1           0.000    
     73      4      1     35       110.3           110.1           0.000    
     74      5      1     35       110.3           110.1           0.000    
     75      4     36     35       109.9           109.7           0.000    
     76      5     36     35       109.9           109.7           0.000    
     77      4     35     34       109.9           109.7           0.000    
     78      5     35     34       109.9           109.7           0.000    
     79      4     36     34       109.9           109.7           0.000    
     80      5     36     34       109.9           109.7           0.000    
     81      4     36     33       109.9           109.7           0.000    
     82      5     36     33       109.9           109.7           0.000    
     83      4     36     32       109.9           109.7           0.000    
     84      5     36     32       109.9           109.7           0.000    
     85      4     37     32       109.9           109.7           0.000    
     86      5     37     32       109.9           109.7           0.000    
     87      4     37     31       109.9           109.6           0.000    
     88      5     37     31       109.9           109.6           0.000    
     89      4     38     31       109.9           109.6           0.000    
     90      5     38     31       109.9           109.6           0.000    
     91      4     38     30       109.9           109.6           0.000    
     92      5     38     30       109.9           109.6           0.000    
     93      4     39     30       109.9           109.6           0.000    
     94      5     39     30       109.9           109.6           0.000    
     95      4     39     29       109.9           109.6           0.000    
     96      5     39     29       109.9           109.6           0.000    
     97      4     40     29       109.9           109.6           0.000    
     98      5     40     29       109.9           109.6           0.000    
     99      4     40     28       109.9           109.6           0.000    
    100      5     40     28       109.9           109.6           0.000    
    101      4     40     27       109.9           109.6           0.000    
    102      5     40     27       109.9           109.6           0.000    
    103      4     41     27       109.9           109.6           0.000    
    104      5     41     27       109.9           109.6           0.000    
    105      4     41     26       109.9           109.6           0.000    
    106      5     41     26       109.9           109.6           0.000    
    107      4     41     25       109.9           109.6           0.000    
    108      5     41     25       109.9           109.6           0.000    
    109      4     41     24       109.9           109.6           0.000    
    110      5     41     24       109.9           109.6           0.000    
    111      4     41     23       109.9           109.6           0.000    
    112      5     41     23       109.9           109.6           0.000    
    113      4     41     22       109.9           109.6           0.000    
    114      5     41     22       109.9           109.6           0.000    
    115      4     42     22       109.9           109.6           0.000    
    116      5     42     22       109.9           109.6           0.000    
    117      4     42     21       109.9           109.6           0.000    
    118      5     42     21       109.9           109.6           0.000    
    119      4     42     20       109.9           109.6           0.000    
    120      5     42     20       109.9           109.6           0.000    
    121      4     42     19       109.9           109.6           0.000    
    122      5     42     19       109.9           109.6           0.000    
    123      4     43     18       109.9           109.6           0.000    
    124      5     43     18       109.9           109.6           0.000    
    125      4     42     18       109.9           109.6           0.000    
    126      5     42     18       109.9           109.6           0.000    
    127      4     42     17       109.9           109.6           0.000    
    128      5     42     17       109.9           109.6           0.000    
    129      4     42     16       109.9           109.6           0.000    
    130      5     42     16       109.9           109.6           0.000    
    131      4     42     15       109.9           109.6           0.000    
    132      5     42     15       109.9           109.6           0.000    
    133      4     43     15       109.9           109.6           0.000    
    134      5     43     15       109.9           109.6           0.000    
    135      4     43     14       109.9           109.6           0.000    
    136      5     43     14       109.9           109.6           0.000    
    137      4     43     13       109.9           109.6           0.000    
    138      5     43     13       109.9           109.6           0.000    
    139      4     43     12       109.9           109.6           0.000    
    140      5     43     12       109.9           109.6           0.000    
    141      4     43     11       109.9           109.6           0.000    
    142      5     43     11       109.9           109.6           0.000    
    143      4     43     10       109.9           109.6           0.000    
    144      5     43     10       109.9           109.6           0.000    
    145      4     44     10       109.9           109.6           0.000    
    146      5     44     10       109.9           109.6           0.000    
    147      4     44      9       109.9           109.6           0.000    
    148      5     44      9       109.9           109.6           0.000    
    149      4     44      8       109.9           109.6           0.000    
    150      5     44      8       109.9           109.6           0.000    
    151      4     44      7       109.9           109.6           0.000    
    152      5     44      7       109.9           109.6           0.000    
    153      4     44      6       109.9           109.6           0.000    
    154      5     44      6       109.9           109.6           0.000    
    155      4     44      5       109.9           109.6           0.000    
    156      5     44      5       109.9           109.6           0.000    
    157      4     44      4       109.9           109.6           0.000    
    158      5     44      4       109.9           109.6           0.000    
    159      4     44      3       109.9           109.6           0.000    
    160      5     44      3       109.9           109.6           0.000    
    161      4     45      3       109.9           109.6           0.000    
    162      5     45      3       109.9           109.6           0.000    
    163      4     45      2       109.9           109.6           0.000    
    164      5     45      2       109.9           109.6           0.000    
    165      4     45      1       109.9           109.6           0.000    
    166      5     45      1       109.9           109.6           0.000    


    166 TIME-VARIANT SPECIFIED-HEAD CELLS

 SOLVING FOR HEAD 


     4 CALLS TO PCG ROUTINE FOR TIME STEP   1 IN STRESS PERIOD   93
    78 TOTAL ITERATIONS

 MAXIMUM HEAD CHANGE FOR EACH ITERATION (1 INDICATES THE FIRST INNER ITERATION):

    HEAD CHANGE    HEAD CHANGE    HEAD CHANGE    HEAD CHANGE    HEAD CHANGE 
   LAYER,ROW,COL  LAYER,ROW,COL  LAYER,ROW,COL  LAYER,ROW,COL  LAYER,ROW,COL
 ---------------------------------------------------------------------------
  1 -0.9117      0  0.4953      0 -0.2804      0  0.2497      0 -0.3153    
   (  5, 43,  5)  (  5, 35,  1)  (  5, 30,  2)  (  5, 41,  2)  (  5, 37,  1)
  0 -0.1814      0 -0.2063      0  0.2295      0  0.1296      0  0.1047    
   (  5, 39,  1)  (  5, 40,  1)  (  5, 37,  1)  (  5, 37,  6)  (  5, 40,  1)
  0  0.9278E-01  0 -0.9725E-01  0  0.3199E-01  0  0.4853E-01  0 -0.4232E-01
   (  5, 35,  9)  (  5, 32,  9)  (  5, 31,  4)  (  5, 30,  9)  (  5, 36,  8)
  0 -0.2581E-01  0  0.1935E-01  0  0.2051E-01  0  0.1542E-01  0 -0.1413E-01
   (  5, 34,  1)  (  5, 36,  4)  (  5, 15,  1)  (  5, 39,  1)  (  5, 37,  1)
  0  0.1351E-01  0  0.9583E-02  0 -0.4878E-02  0 -0.8487E-02  0  0.6155E-02
   (  5, 38,  4)  (  5, 32,  4)  (  5, 29,  1)  (  5, 13,  1)  (  5, 13,  1)
  0  0.4789E-02  0 -0.3145E-02  0  0.2117E-02  0 -0.1986E-02  0  0.1293E-02
   (  5, 37,  1)  (  5, 40,  2)  (  5, 12,  1)  (  5, 35,  1)  (  5, 36,  3)
  1  0.2234E-02  0 -0.1852E-02  0  0.2459E-02  0 -0.2922E-02  0 -0.1213E-02
   (  5, 27,  2)  (  5, 32,  5)  (  5, 33,  1)  (  5, 35,  3)  (  5, 23,  5)
  0  0.1203E-02  0 -0.1097E-02  0  0.1110E-02  0 -0.7574E-03  0  0.5984E-03
   (  5, 37,  3)  (  5, 38,  3)  (  5, 38,  1)  (  5, 39,  1)  (  5, 37,  1)
  0 -0.4191E-03  0  0.1912E-03  0  0.4480E-03  0 -0.3168E-03  0  0.1688E-03
   (  5, 39,  2)  (  5, 33,  3)  (  5, 41,  2)  (  5, 34,  8)  (  5, 38,  4)
  0 -0.1806E-03  0 -0.1994E-03  0 -0.1071E-03  0 -0.8697E-04  0 -0.8472E-04
   (  5, 35,  3)  (  5, 32,  9)  (  5, 33,  5)  (  5, 30, 11)  (  5, 36,  8)
  0  0.4844E-04  0  0.5760E-04  0 -0.4172E-04  0  0.3474E-04  0  0.2424E-04
   (  5, 31,  2)  (  5, 36,  1)  (  5, 38,  1)  (  5, 28, 10)  (  5, 15,  1)
  0 -0.2630E-04  0  0.1134E-04  0 -0.2052E-04  0  0.1189E-04  0  0.1150E-04
   (  5, 34,  1)  (  5, 35,  3)  (  5, 41,  5)  (  5, 38,  1)  (  5, 43,  6)
  1 -0.6581E-05  0  0.1638E-04  0  0.1095E-04  0 -0.1053E-04  0 -0.8139E-05
   (  5, 30,  2)  (  5, 14,  2)  (  5, 23,  5)  (  5, 23,  3)  (  5, 34,  3)
  0  0.9422E-05  0 -0.7590E-05  0 -0.4769E-05  0  0.3103E-05  0  0.3213E-05
   (  5, 35,  1)  (  5, 38,  2)  (  5, 30,  8)  (  5, 36,  5)  (  5, 38,  1)
  0  0.1832E-05  0 -0.1751E-05  0  0.2011E-05  0 -0.2200E-05  0 -0.1220E-05
   (  5, 26,  1)  (  5, 31,  5)  (  5, 32,  7)  (  5, 34,  8)  (  2, 43,  7)
  0 -0.1409E-05  0  0.7688E-06  1 -0.6242E-06
   (  5, 29, 10)  (  5, 34,  1)  (  5, 35,  2)

 MAXIMUM RESIDUAL FOR EACH ITERATION (1 INDICATES THE FIRST INNER ITERATION):

    RESIDUAL       RESIDUAL       RESIDUAL       RESIDUAL       RESIDUAL    
   LAYER,ROW,COL  LAYER,ROW,COL  LAYER,ROW,COL  LAYER,ROW,COL  LAYER,ROW,COL
 ---------------------------------------------------------------------------
  1  0.3382E-02  0  0.2507E-02  0  0.2304E-02  0  0.2064E-02  0  0.1713E-02
   (  4, 44,  2)  (  4, 35, 35)  (  4, 35, 35)  (  4, 35, 35)  (  4, 35, 35)
  0  0.1414E-02  0  0.1168E-02  0 -0.9406E-03  0 -0.7860E-03  0 -0.6677E-03
   (  4, 35, 35)  (  3, 40, 27)  (  4, 43,  5)  (  4, 43,  5)  (  4, 43,  4)
  0 -0.5366E-03  0 -0.4318E-03  0 -0.4102E-03  0 -0.3268E-03  0 -0.2651E-03
   (  4, 43,  4)  (  4, 43,  4)  (  4, 43,  4)  (  4, 43,  4)  (  4, 44,  2)
  0 -0.2245E-03  0 -0.2095E-03  0 -0.1650E-03  0 -0.1326E-03  0 -0.1109E-03
   (  4, 44,  2)  (  4, 44,  2)  (  4, 44,  2)  (  4, 44,  2)  (  4, 44,  2)
  0 -0.9124E-04  0 -0.6873E-04  0 -0.6361E-04  0 -0.4971E-04  0 -0.3958E-04
   (  4, 44,  2)  (  4, 44,  2)  (  4, 44,  2)  (  4, 34, 35)  (  4, 34, 35)
  0 -0.3243E-04  0 -0.2822E-04  0 -0.2075E-04  0 -0.1749E-04  0 -0.1398E-04
   (  4, 34, 35)  (  4, 34, 35)  (  4, 34, 35)  (  4, 34, 35)  (  4, 34, 35)
  1 -0.1298E-04  0 -0.1218E-04  0 -0.1103E-04  0 -0.7362E-05  0 -0.5810E-05
   (  4, 34, 35)  (  4, 34, 35)  (  4, 34, 35)  (  4, 34, 35)  (  4, 34, 35)
  0 -0.4232E-05  0 -0.3756E-05  0 -0.3215E-05  0 -0.2794E-05  0  0.2385E-05
   (  4, 34, 35)  (  3, 41, 22)  (  3, 41, 22)  (  3, 41, 22)  (  4, 35, 35)
  0  0.2135E-05  0  0.2084E-05  0  0.1850E-05  0  0.1553E-05  0  0.1313E-05
   (  4, 35, 35)  (  4, 35, 35)  (  4, 35, 35)  (  4, 35, 35)  (  4, 35, 35)
  0  0.1158E-05  0  0.8926E-06  0 -0.6703E-06  0 -0.4950E-06  0 -0.3865E-06
   (  4, 35, 35)  (  4, 35, 35)  (  4, 34, 35)  (  4, 34, 35)  (  4, 34, 35)
  0 -0.3489E-06  0 -0.2700E-06  0 -0.2247E-06  0  0.1607E-06  0  0.1225E-06
   (  4, 34, 35)  (  4, 34, 35)  (  4, 34, 35)  (  4, 35, 35)  (  4, 35, 35)
  0  0.9745E-07  0  0.9211E-07  0  0.7336E-07  0  0.6223E-07  0 -0.4649E-07
   (  4, 35, 35)  (  4, 35, 35)  (  4, 35, 35)  (  4, 35, 35)  (  3, 35, 34)
  1  0.4711E-07  0  0.4592E-07  0  0.3245E-07  0 -0.2950E-07  0 -0.2880E-07
   (  2, 35, 34)  (  5, 14,  3)  (  2, 35, 34)  (  5, 14,  2)  (  5, 14,  2)
  0  0.2087E-07  0  0.2130E-07  0  0.1768E-07  0  0.1669E-07  0  0.1473E-07
   (  2, 35, 34)  (  5, 13,  1)  (  4, 35, 35)  (  4, 35, 35)  (  4, 35, 35)
  0  0.1328E-07  0  0.1256E-07  0  0.1042E-07  0  0.8400E-08  0  0.6198E-08
   (  4, 35, 35)  (  4, 35, 35)  (  4, 35, 35)  (  4, 35, 35)  (  4, 35, 35)
  0  0.4097E-08  0  0.3415E-08  1  0.3365E-08
   (  4, 35, 35)  (  4, 35, 35)  (  4, 35, 35)



 OUTPUT CONTROL FOR STRESS PERIOD   93   TIME STEP    1
    SAVE HEAD FOR ALL LAYERS
    SAVE DRAWDOWN FOR ALL LAYERS
    SAVE BUDGET
    PRINT BUDGET
 UBDSV1 SAVING "         STORAGE" ON UNIT   9 AT TIME STEP  1, STRESS PERIOD  93
 UBDSV2 SAVING "   CONSTANT HEAD" ON UNIT   9 AT TIME STEP  1, STRESS PERIOD  93
 UBDSV1 SAVING "FLOW RIGHT FACE " ON UNIT   9 AT TIME STEP  1, STRESS PERIOD  93
 UBDSV1 SAVING "FLOW FRONT FACE " ON UNIT   9 AT TIME STEP  1, STRESS PERIOD  93
 UBDSV1 SAVING "FLOW LOWER FACE " ON UNIT   9 AT TIME STEP  1, STRESS PERIOD  93
 UBDSV3 SAVING "        RECHARGE" ON UNIT   9 AT TIME STEP  1, STRESS PERIOD  93

 HEAD WILL BE SAVED ON UNIT   37 AT END OF TIME STEP    1, STRESS PERIOD   93

 DRAWDOWN WILL BE SAVED ON UNIT   38 AT END OF TIME STEP    1, STRESS PERIOD   93
1
  VOLUMETRIC BUDGET FOR ENTIRE MODEL AT END OF TIME STEP    1, STRESS PERIOD  93
  ------------------------------------------------------------------------------

     CUMULATIVE VOLUMES      L**3       RATES FOR THIS TIME STEP      L**3/T
     ------------------                 ------------------------

           IN:                                      IN:
           ---                                      ---
             STORAGE =       14144.5020               STORAGE =       8.7258E-03
       CONSTANT HEAD =       24015.5234         CONSTANT HEAD =       6.6268E-04
            RECHARGE =        1129.4633              RECHARGE =       1.0213E-04

            TOTAL IN =       39289.4883              TOTAL IN =       9.4906E-03

          OUT:                                     OUT:
          ----                                     ----
             STORAGE =       10892.8867               STORAGE =           0.0000
       CONSTANT HEAD =       28397.7227         CONSTANT HEAD =       9.4907E-03
            RECHARGE =           0.0000              RECHARGE =           0.0000

           TOTAL OUT =       39290.6094             TOTAL OUT =       9.4907E-03

            IN - OUT =          -1.1211              IN - OUT =      -1.5274E-07

 PERCENT DISCREPANCY =          -0.00     PERCENT DISCREPANCY =          -0.00






         TIME SUMMARY AT END OF TIME STEP    1 IN STRESS PERIOD   93
                    SECONDS     MINUTES      HOURS       DAYS        YEARS
                    -----------------------------------------------------------
   TIME STEP LENGTH  86400.      1440.0      24.000      1.0000     2.73785E-03
 STRESS PERIOD TIME  86400.      1440.0      24.000      1.0000     2.73785E-03
         TOTAL TIME 1.10592E+07 1.84320E+05  3072.0      128.00     0.35044    
1
1
                            STRESS PERIOD NO.   94, LENGTH =   86400.00    
                            -----------------------------------------------

                              NUMBER OF TIME STEPS =     1

                               MULTIPLIER FOR DELT =     1.000

                            INITIAL TIME STEP SIZE =   86400.00    

 REUSING RECH FROM LAST STRESS PERIOD

 CHD NO.   LAYER   ROW   COL    START HEAD        END HEAD         IFACE           
 ----------------------------------------------------------------------------------
      1      4      3      1       110.1           109.9           0.000    
      2      5      3      1       110.1           109.9           0.000    
      3      4      3      2       110.1           109.9           0.000    
      4      5      3      2       110.1           109.9           0.000    
      5      4      3      3       110.1           109.9           0.000    
      6      5      3      3       110.1           109.9           0.000    
      7      4      3      4       110.1           109.9           0.000    
      8      5      3      4       110.1           109.9           0.000    
      9      4      3      5       110.1           109.9           0.000    
     10      5      3      5       110.1           109.9           0.000    
     11      4      3      6       110.1           109.9           0.000    
     12      5      3      6       110.1           109.9           0.000    
     13      4      3      7       110.1           109.9           0.000    
     14      5      3      7       110.1           109.9           0.000    
     15      4      3      8       110.1           109.9           0.000    
     16      5      3      8       110.1           109.9           0.000    
     17      4      2      8       110.1           109.9           0.000    
     18      5      2      8       110.1           109.9           0.000    
     19      4      2      9       110.1           109.9           0.000    
     20      5      2      9       110.1           109.9           0.000    
     21      4      2     10       110.1           109.9           0.000    
     22      5      2     10       110.1           109.9           0.000    
     23      4      2     11       110.1           109.9           0.000    
     24      5      2     11       110.1           109.9           0.000    
     25      4      2     12       110.1           109.9           0.000    
     26      5      2     12       110.1           109.9           0.000    
     27      4      2     13       110.1           109.9           0.000    
     28      5      2     13       110.1           109.9           0.000    
     29      4      2     14       110.1           109.9           0.000    
     30      5      2     14       110.1           109.9           0.000    
     31      4      2     15       110.1           109.9           0.000    
     32      5      2     15       110.1           109.9           0.000    
     33      4      2     16       110.1           109.9           0.000    
     34      5      2     16       110.1           109.9           0.000    
     35      4      2     17       110.1           109.9           0.000    
     36      5      2     17       110.1           109.9           0.000    
     37      4      2     18       110.1           109.9           0.000    
     38      5      2     18       110.1           109.9           0.000    
     39      4      2     19       110.1           109.9           0.000    
     40      5      2     19       110.1           109.9           0.000    
     41      4      2     20       110.1           109.9           0.000    
     42      5      2     20       110.1           109.9           0.000    
     43      4      2     21       110.1           109.9           0.000    
     44      5      2     21       110.1           109.9           0.000    
     45      4      2     22       110.1           109.9           0.000    
     46      5      2     22       110.1           109.9           0.000    
     47      4      2     23       110.1           109.9           0.000    
     48      5      2     23       110.1           109.9           0.000    
     49      4      2     24       110.1           109.9           0.000    
     50      5      2     24       110.1           109.9           0.000    
     51      4      2     25       110.1           109.9           0.000    
     52      5      2     25       110.1           109.9           0.000    
     53      4      2     26       110.1           109.9           0.000    
     54      5      2     26       110.1           109.9           0.000    
     55      4      1     26       110.1           109.9           0.000    
     56      5      1     26       110.1           109.9           0.000    
     57      4      1     27       110.1           109.9           0.000    
     58      5      1     27       110.1           109.9           0.000    
     59      4      1     28       110.1           109.9           0.000    
     60      5      1     28       110.1           109.9           0.000    
     61      4      1     29       110.1           109.9           0.000    
     62      5      1     29       110.1           109.9           0.000    
     63      4      1     30       110.1           109.9           0.000    
     64      5      1     30       110.1           109.9           0.000    
     65      4      1     31       110.1           109.9           0.000    
     66      5      1     31       110.1           109.9           0.000    
     67      4      1     32       110.1           109.9           0.000    
     68      5      1     32       110.1           109.9           0.000    
     69      4      1     33       110.1           109.9           0.000    
     70      5      1     33       110.1           109.9           0.000    
     71      4      1     34       110.1           109.9           0.000    
     72      5      1     34       110.1           109.9           0.000    
     73      4      1     35       110.1           109.9           0.000    
     74      5      1     35       110.1           109.9           0.000    
     75      4     36     35       109.7           109.7           0.000    
     76      5     36     35       109.7           109.7           0.000    
     77      4     35     34       109.7           109.7           0.000    
     78      5     35     34       109.7           109.7           0.000    
     79      4     36     34       109.7           109.7           0.000    
     80      5     36     34       109.7           109.7           0.000    
     81      4     36     33       109.7           109.7           0.000    
     82      5     36     33       109.7           109.7           0.000    
     83      4     36     32       109.7           109.7           0.000    
     84      5     36     32       109.7           109.7           0.000    
     85      4     37     32       109.7           109.7           0.000    
     86      5     37     32       109.7           109.7           0.000    
     87      4     37     31       109.6           109.7           0.000    
     88      5     37     31       109.6           109.7           0.000    
     89      4     38     31       109.6           109.7           0.000    
     90      5     38     31       109.6           109.7           0.000    
     91      4     38     30       109.6           109.7           0.000    
     92      5     38     30       109.6           109.7           0.000    
     93      4     39     30       109.6           109.7           0.000    
     94      5     39     30       109.6           109.7           0.000    
     95      4     39     29       109.6           109.7           0.000    
     96      5     39     29       109.6           109.7           0.000    
     97      4     40     29       109.6           109.7           0.000    
     98      5     40     29       109.6           109.7           0.000    
     99      4     40     28       109.6           109.7           0.000    
    100      5     40     28       109.6           109.7           0.000    
    101      4     40     27       109.6           109.7           0.000    
    102      5     40     27       109.6           109.7           0.000    
    103      4     41     27       109.6           109.7           0.000    
    104      5     41     27       109.6           109.7           0.000    
    105      4     41     26       109.6           109.7           0.000    
    106      5     41     26       109.6           109.7           0.000    
    107      4     41     25       109.6           109.7           0.000    
    108      5     41     25       109.6           109.7           0.000    
    109      4     41     24       109.6           109.7           0.000    
    110      5     41     24       109.6           109.7           0.000    
    111      4     41     23       109.6           109.7           0.000    
    112      5     41     23       109.6           109.7           0.000    
    113      4     41     22       109.6           109.7           0.000    
    114      5     41     22       109.6           109.7           0.000    
    115      4     42     22       109.6           109.7           0.000    
    116      5     42     22       109.6           109.7           0.000    
    117      4     42     21       109.6           109.7           0.000    
    118      5     42     21       109.6           109.7           0.000    
    119      4     42     20       109.6           109.7           0.000    
    120      5     42     20       109.6           109.7           0.000    
    121      4     42     19       109.6           109.7           0.000    
    122      5     42     19       109.6           109.7           0.000    
    123      4     43     18       109.6           109.7           0.000    
    124      5     43     18       109.6           109.7           0.000    
    125      4     42     18       109.6           109.7           0.000    
    126      5     42     18       109.6           109.7           0.000    
    127      4     42     17       109.6           109.7           0.000    
    128      5     42     17       109.6           109.7           0.000    
    129      4     42     16       109.6           109.7           0.000    
    130      5     42     16       109.6           109.7           0.000    
    131      4     42     15       109.6           109.7           0.000    
    132      5     42     15       109.6           109.7           0.000    
    133      4     43     15       109.6           109.7           0.000    
    134      5     43     15       109.6           109.7           0.000    
    135      4     43     14       109.6           109.7           0.000    
    136      5     43     14       109.6           109.7           0.000    
    137      4     43     13       109.6           109.7           0.000    
    138      5     43     13       109.6           109.7           0.000    
    139      4     43     12       109.6           109.7           0.000    
    140      5     43     12       109.6           109.7           0.000    
    141      4     43     11       109.6           109.7           0.000    
    142      5     43     11       109.6           109.7           0.000    
    143      4     43     10       109.6           109.7           0.000    
    144      5     43     10       109.6           109.7           0.000    
    145      4     44     10       109.6           109.7           0.000    
    146      5     44     10       109.6           109.7           0.000    
    147      4     44      9       109.6           109.7           0.000    
    148      5     44      9       109.6           109.7           0.000    
    149      4     44      8       109.6           109.7           0.000    
    150      5     44      8       109.6           109.7           0.000    
    151      4     44      7       109.6           109.7           0.000    
    152      5     44      7       109.6           109.7           0.000    
    153      4     44      6       109.6           109.7           0.000    
    154      5     44      6       109.6           109.7           0.000    
    155      4     44      5       109.6           109.7           0.000    
    156      5     44      5       109.6           109.7           0.000    
    157      4     44      4       109.6           109.7           0.000    
    158      5     44      4       109.6           109.7           0.000    
    159      4     44      3       109.6           109.7           0.000    
    160      5     44      3       109.6           109.7           0.000    
    161      4     45      3       109.6           109.7           0.000    
    162      5     45      3       109.6           109.7           0.000    
    163      4     45      2       109.6           109.7           0.000    
    164      5     45      2       109.6           109.7           0.000    
    165      4     45      1       109.6           109.7           0.000    
    166      5     45      1       109.6           109.7           0.000    


    166 TIME-VARIANT SPECIFIED-HEAD CELLS

 SOLVING FOR HEAD 


     4 CALLS TO PCG ROUTINE FOR TIME STEP   1 IN STRESS PERIOD   94
    68 TOTAL ITERATIONS

 MAXIMUM HEAD CHANGE FOR EACH ITERATION (1 INDICATES THE FIRST INNER ITERATION):

    HEAD CHANGE    HEAD CHANGE    HEAD CHANGE    HEAD CHANGE    HEAD CHANGE 
   LAYER,ROW,COL  LAYER,ROW,COL  LAYER,ROW,COL  LAYER,ROW,COL  LAYER,ROW,COL
 ---------------------------------------------------------------------------
  1  0.2098      0 -0.1340      0 -0.1177      0  0.7827E-01  0 -0.1079    
   (  5, 43,  5)  (  5, 37,  2)  (  5, 40,  2)  (  5, 34,  1)  (  5, 33,  3)
  0 -0.7476E-01  0  0.4236E-01  0 -0.5404E-01  0 -0.4131E-01  0  0.2407E-01
   (  5, 36,  2)  (  5, 25,  6)  (  5, 37,  1)  (  5, 37,  6)  (  5, 35,  7)
  0 -0.2545E-01  0 -0.2068E-01  0  0.1713E-01  0 -0.1090E-01  0 -0.1389E-01
   (  5, 33,  1)  (  5, 29, 11)  (  5, 34,  8)  (  5, 27,  1)  (  5, 33,  9)
  0  0.7740E-02  0  0.5992E-02  0 -0.5965E-02  0  0.3629E-02  0 -0.3282E-02
   (  5, 30,  8)  (  5, 34,  1)  (  5, 35,  8)  (  5, 34,  9)  (  5, 36,  7)
  0  0.2264E-02  0 -0.2120E-02  0  0.2554E-02  0 -0.1741E-02  0 -0.7648E-03
   (  5, 37,  1)  (  5, 35,  1)  (  5, 14,  1)  (  5, 13,  1)  (  5, 29,  2)
  0 -0.1064E-02  0  0.8420E-03  0  0.5893E-03  0 -0.4672E-03  0  0.5394E-03
   (  5, 37,  1)  (  5, 39,  2)  (  5, 35,  1)  (  5, 36,  3)  (  5, 12,  1)
  1 -0.4844E-03  0  0.5001E-03  0 -0.5055E-03  0 -0.3467E-03  0 -0.2981E-03
   (  5, 12,  1)  (  5, 36,  3)  (  5, 32,  3)  (  5, 36,  2)  (  5, 25,  6)
  0  0.2684E-03  0 -0.1888E-03  0  0.1624E-03  0 -0.1831E-03  0  0.1948E-03
   (  5, 25,  4)  (  5, 25,  2)  (  5, 37,  3)  (  5, 37,  1)  (  5, 39,  1)
  0 -0.1336E-03  0  0.5485E-04  0 -0.3967E-04  0  0.5845E-04  0 -0.4644E-04
   (  5, 41,  2)  (  5, 39,  2)  (  5, 28,  2)  (  5, 30,  8)  (  5, 32,  8)
  0 -0.3772E-04  0  0.2069E-04  0 -0.2872E-04  0  0.3033E-04  0 -0.1418E-04
   (  5, 34,  1)  (  5, 34,  2)  (  5, 36,  7)  (  5, 38,  8)  (  5, 34,  8)
  0 -0.1577E-04  0  0.9130E-05  0 -0.1106E-04  0  0.1141E-04  0 -0.7388E-05
   (  5, 29,  2)  (  5, 33,  7)  (  5, 36,  1)  (  5, 39,  1)  (  5, 41,  1)
  0  0.3563E-05  0 -0.2813E-05  0 -0.1990E-05  0  0.2034E-05  0  0.1396E-05
   (  5, 36,  7)  (  5, 38,  1)  (  5, 33,  1)  (  5, 40,  1)  (  5, 31,  2)
  1 -0.1197E-05  0  0.1395E-05  0 -0.1261E-05  0  0.1045E-05  0  0.1218E-05
   (  5, 32,  3)  (  5, 38,  2)  (  5, 42,  1)  (  5, 23, 14)  (  5, 35,  2)
  0 -0.1216E-05  0 -0.4826E-06  1  0.4630E-06
   (  5, 37,  2)  (  5, 26,  4)  (  5, 25,  3)

 MAXIMUM RESIDUAL FOR EACH ITERATION (1 INDICATES THE FIRST INNER ITERATION):

    RESIDUAL       RESIDUAL       RESIDUAL       RESIDUAL       RESIDUAL    
   LAYER,ROW,COL  LAYER,ROW,COL  LAYER,ROW,COL  LAYER,ROW,COL  LAYER,ROW,COL
 ---------------------------------------------------------------------------
  1  0.8746E-03  0  0.7383E-03  0  0.6227E-03  0  0.5575E-03  0  0.4363E-03
   (  3,  3,  1)  (  3,  3,  1)  (  3,  3,  1)  (  3,  3,  1)  (  3,  3,  1)
  0  0.3646E-03  0  0.3089E-03  0  0.2410E-03  0  0.1885E-03  0  0.1535E-03
   (  3,  3,  1)  (  3,  3,  1)  (  3,  3,  1)  (  3,  3,  1)  (  4, 43,  4)
  0  0.1323E-03  0  0.1178E-03  0  0.1018E-03  0  0.9382E-04  0  0.7264E-04
   (  4, 44,  2)  (  4, 44,  2)  (  4, 44,  2)  (  4, 44,  2)  (  4, 44,  2)
  0  0.5989E-04  0  0.5287E-04  0  0.3787E-04  0  0.2803E-04  0  0.1884E-04
   (  4, 44,  2)  (  4, 44,  2)  (  4, 44,  2)  (  4, 44,  2)  (  4, 44,  2)
  0 -0.1520E-04  0 -0.1347E-04  0 -0.1069E-04  0 -0.8490E-05  0 -0.8133E-05
   (  3,  3,  7)  (  3,  3,  7)  (  3,  3,  7)  (  3,  3,  7)  (  3,  3,  2)
  0 -0.6712E-05  0 -0.5795E-05  0 -0.4538E-05  0 -0.4158E-05  0 -0.3068E-05
   (  3,  3,  2)  (  3,  3,  2)  (  3,  3,  2)  (  3,  3,  2)  (  3,  3,  2)
  1 -0.3030E-05  0 -0.2661E-05  0 -0.2370E-05  0 -0.2184E-05  0 -0.1832E-05
   (  3,  3,  2)  (  3,  3,  2)  (  3,  3,  2)  (  3,  3,  2)  (  3,  3,  2)
  0 -0.1585E-05  0 -0.1321E-05  0 -0.1145E-05  0 -0.1000E-05  0 -0.8597E-06
   (  3,  3,  2)  (  3,  3,  2)  (  3,  3,  2)  (  3,  3,  2)  (  3,  3,  2)
  0 -0.7231E-06  0 -0.6143E-06  0 -0.5886E-06  0 -0.4697E-06  0 -0.3619E-06
   (  3,  3,  2)  (  3,  3,  2)  (  3,  3,  2)  (  3,  3,  2)  (  3,  3,  2)
  0 -0.2781E-06  0 -0.2569E-06  0 -0.1822E-06  0 -0.1376E-06  0 -0.1012E-06
   (  3,  3,  2)  (  3,  3,  2)  (  3,  3,  2)  (  3,  3,  2)  (  3,  3,  2)
  0 -0.7629E-07  0  0.6606E-07  0  0.5904E-07  0  0.4397E-07  0  0.3173E-07
   (  3,  3,  2)  (  3,  3,  1)  (  3,  3,  1)  (  3,  3,  1)  (  3,  3,  1)
  0  0.2382E-07  0  0.1876E-07  0  0.1749E-07  0  0.1267E-07  0  0.1090E-07
   (  3,  3,  1)  (  3,  3,  1)  (  3,  3,  1)  (  3,  3,  1)  (  3,  3,  1)
  1  0.1068E-07  0  0.1044E-07  0  0.9026E-08  0  0.7037E-08  0  0.6210E-08
   (  3,  3,  1)  (  3,  3,  1)  (  3,  3,  1)  (  3,  3,  1)  (  3,  3,  1)
  0  0.5412E-08  0  0.5089E-08  1  0.5045E-08
   (  3,  3,  1)  (  3,  3,  1)  (  3,  3,  1)



 OUTPUT CONTROL FOR STRESS PERIOD   94   TIME STEP    1
    SAVE HEAD FOR ALL LAYERS
    SAVE DRAWDOWN FOR ALL LAYERS
    SAVE BUDGET
    PRINT BUDGET
 UBDSV1 SAVING "         STORAGE" ON UNIT   9 AT TIME STEP  1, STRESS PERIOD  94
 UBDSV2 SAVING "   CONSTANT HEAD" ON UNIT   9 AT TIME STEP  1, STRESS PERIOD  94
 UBDSV1 SAVING "FLOW RIGHT FACE " ON UNIT   9 AT TIME STEP  1, STRESS PERIOD  94
 UBDSV1 SAVING "FLOW FRONT FACE " ON UNIT   9 AT TIME STEP  1, STRESS PERIOD  94
 UBDSV1 SAVING "FLOW LOWER FACE " ON UNIT   9 AT TIME STEP  1, STRESS PERIOD  94
 UBDSV3 SAVING "        RECHARGE" ON UNIT   9 AT TIME STEP  1, STRESS PERIOD  94

 HEAD WILL BE SAVED ON UNIT   37 AT END OF TIME STEP    1, STRESS PERIOD   94

 DRAWDOWN WILL BE SAVED ON UNIT   38 AT END OF TIME STEP    1, STRESS PERIOD   94
1
  VOLUMETRIC BUDGET FOR ENTIRE MODEL AT END OF TIME STEP    1, STRESS PERIOD  94
  ------------------------------------------------------------------------------

     CUMULATIVE VOLUMES      L**3       RATES FOR THIS TIME STEP      L**3/T
     ------------------                 ------------------------

           IN:                                      IN:
           ---                                      ---
             STORAGE =       14438.7920               STORAGE =       3.4061E-03
       CONSTANT HEAD =       24066.4336         CONSTANT HEAD =       5.8924E-04
            RECHARGE =        1138.2872              RECHARGE =       1.0213E-04

            TOTAL IN =       39643.5156              TOTAL IN =       4.0975E-03

          OUT:                                     OUT:
          ----                                     ----
             STORAGE =       10897.1250               STORAGE =       4.9051E-05
       CONSTANT HEAD =       28747.5215         CONSTANT HEAD =       4.0486E-03
            RECHARGE =           0.0000              RECHARGE =           0.0000

           TOTAL OUT =       39644.6484             TOTAL OUT =       4.0977E-03

            IN - OUT =          -1.1328              IN - OUT =      -1.4948E-07

 PERCENT DISCREPANCY =          -0.00     PERCENT DISCREPANCY =          -0.00






         TIME SUMMARY AT END OF TIME STEP    1 IN STRESS PERIOD   94
                    SECONDS     MINUTES      HOURS       DAYS        YEARS
                    -----------------------------------------------------------
   TIME STEP LENGTH  86400.      1440.0      24.000      1.0000     2.73785E-03
 STRESS PERIOD TIME  86400.      1440.0      24.000      1.0000     2.73785E-03
         TOTAL TIME 1.11456E+07 1.85760E+05  3096.0      129.00     0.35318    
1
1
                            STRESS PERIOD NO.   95, LENGTH =   86400.00    
                            -----------------------------------------------

                              NUMBER OF TIME STEPS =     1

                               MULTIPLIER FOR DELT =     1.000

                            INITIAL TIME STEP SIZE =   86400.00    

 REUSING RECH FROM LAST STRESS PERIOD

 CHD NO.   LAYER   ROW   COL    START HEAD        END HEAD         IFACE           
 ----------------------------------------------------------------------------------
      1      4      3      1       109.9           109.9           0.000    
      2      5      3      1       109.9           109.9           0.000    
      3      4      3      2       109.9           109.9           0.000    
      4      5      3      2       109.9           109.9           0.000    
      5      4      3      3       109.9           109.9           0.000    
      6      5      3      3       109.9           109.9           0.000    
      7      4      3      4       109.9           109.9           0.000    
      8      5      3      4       109.9           109.9           0.000    
      9      4      3      5       109.9           109.9           0.000    
     10      5      3      5       109.9           109.9           0.000    
     11      4      3      6       109.9           109.9           0.000    
     12      5      3      6       109.9           109.9           0.000    
     13      4      3      7       109.9           109.9           0.000    
     14      5      3      7       109.9           109.9           0.000    
     15      4      3      8       109.9           109.9           0.000    
     16      5      3      8       109.9           109.9           0.000    
     17      4      2      8       109.9           109.9           0.000    
     18      5      2      8       109.9           109.9           0.000    
     19      4      2      9       109.9           109.9           0.000    
     20      5      2      9       109.9           109.9           0.000    
     21      4      2     10       109.9           109.9           0.000    
     22      5      2     10       109.9           109.9           0.000    
     23      4      2     11       109.9           109.9           0.000    
     24      5      2     11       109.9           109.9           0.000    
     25      4      2     12       109.9           109.9           0.000    
     26      5      2     12       109.9           109.9           0.000    
     27      4      2     13       109.9           109.9           0.000    
     28      5      2     13       109.9           109.9           0.000    
     29      4      2     14       109.9           109.9           0.000    
     30      5      2     14       109.9           109.9           0.000    
     31      4      2     15       109.9           109.9           0.000    
     32      5      2     15       109.9           109.9           0.000    
     33      4      2     16       109.9           109.9           0.000    
     34      5      2     16       109.9           109.9           0.000    
     35      4      2     17       109.9           109.9           0.000    
     36      5      2     17       109.9           109.9           0.000    
     37      4      2     18       109.9           109.9           0.000    
     38      5      2     18       109.9           109.9           0.000    
     39      4      2     19       109.9           109.9           0.000    
     40      5      2     19       109.9           109.9           0.000    
     41      4      2     20       109.9           109.9           0.000    
     42      5      2     20       109.9           109.9           0.000    
     43      4      2     21       109.9           109.9           0.000    
     44      5      2     21       109.9           109.9           0.000    
     45      4      2     22       109.9           109.9           0.000    
     46      5      2     22       109.9           109.9           0.000    
     47      4      2     23       109.9           109.9           0.000    
     48      5      2     23       109.9           109.9           0.000    
     49      4      2     24       109.9           109.9           0.000    
     50      5      2     24       109.9           109.9           0.000    
     51      4      2     25       109.9           109.9           0.000    
     52      5      2     25       109.9           109.9           0.000    
     53      4      2     26       109.9           109.9           0.000    
     54      5      2     26       109.9           109.9           0.000    
     55      4      1     26       109.9           109.9           0.000    
     56      5      1     26       109.9           109.9           0.000    
     57      4      1     27       109.9           109.9           0.000    
     58      5      1     27       109.9           109.9           0.000    
     59      4      1     28       109.9           109.9           0.000    
     60      5      1     28       109.9           109.9           0.000    
     61      4      1     29       109.9           109.9           0.000    
     62      5      1     29       109.9           109.9           0.000    
     63      4      1     30       109.9           109.9           0.000    
     64      5      1     30       109.9           109.9           0.000    
     65      4      1     31       109.9           109.9           0.000    
     66      5      1     31       109.9           109.9           0.000    
     67      4      1     32       109.9           109.9           0.000    
     68      5      1     32       109.9           109.9           0.000    
     69      4      1     33       109.9           109.9           0.000    
     70      5      1     33       109.9           109.9           0.000    
     71      4      1     34       109.9           109.9           0.000    
     72      5      1     34       109.9           109.9           0.000    
     73      4      1     35       109.9           109.9           0.000    
     74      5      1     35       109.9           109.9           0.000    
     75      4     36     35       109.7           109.7           0.000    
     76      5     36     35       109.7           109.7           0.000    
     77      4     35     34       109.7           109.7           0.000    
     78      5     35     34       109.7           109.7           0.000    
     79      4     36     34       109.7           109.7           0.000    
     80      5     36     34       109.7           109.7           0.000    
     81      4     36     33       109.7           109.7           0.000    
     82      5     36     33       109.7           109.7           0.000    
     83      4     36     32       109.7           109.7           0.000    
     84      5     36     32       109.7           109.7           0.000    
     85      4     37     32       109.7           109.7           0.000    
     86      5     37     32       109.7           109.7           0.000    
     87      4     37     31       109.7           109.7           0.000    
     88      5     37     31       109.7           109.7           0.000    
     89      4     38     31       109.7           109.7           0.000    
     90      5     38     31       109.7           109.7           0.000    
     91      4     38     30       109.7           109.7           0.000    
     92      5     38     30       109.7           109.7           0.000    
     93      4     39     30       109.7           109.7           0.000    
     94      5     39     30       109.7           109.7           0.000    
     95      4     39     29       109.7           109.6           0.000    
     96      5     39     29       109.7           109.6           0.000    
     97      4     40     29       109.7           109.6           0.000    
     98      5     40     29       109.7           109.6           0.000    
     99      4     40     28       109.7           109.6           0.000    
    100      5     40     28       109.7           109.6           0.000    
    101      4     40     27       109.7           109.6           0.000    
    102      5     40     27       109.7           109.6           0.000    
    103      4     41     27       109.7           109.6           0.000    
    104      5     41     27       109.7           109.6           0.000    
    105      4     41     26       109.7           109.6           0.000    
    106      5     41     26       109.7           109.6           0.000    
    107      4     41     25       109.7           109.6           0.000    
    108      5     41     25       109.7           109.6           0.000    
    109      4     41     24       109.7           109.6           0.000    
    110      5     41     24       109.7           109.6           0.000    
    111      4     41     23       109.7           109.6           0.000    
    112      5     41     23       109.7           109.6           0.000    
    113      4     41     22       109.7           109.6           0.000    
    114      5     41     22       109.7           109.6           0.000    
    115      4     42     22       109.7           109.6           0.000    
    116      5     42     22       109.7           109.6           0.000    
    117      4     42     21       109.7           109.6           0.000    
    118      5     42     21       109.7           109.6           0.000    
    119      4     42     20       109.7           109.6           0.000    
    120      5     42     20       109.7           109.6           0.000    
    121      4     42     19       109.7           109.6           0.000    
    122      5     42     19       109.7           109.6           0.000    
    123      4     43     18       109.7           109.6           0.000    
    124      5     43     18       109.7           109.6           0.000    
    125      4     42     18       109.7           109.6           0.000    
    126      5     42     18       109.7           109.6           0.000    
    127      4     42     17       109.7           109.6           0.000    
    128      5     42     17       109.7           109.6           0.000    
    129      4     42     16       109.7           109.6           0.000    
    130      5     42     16       109.7           109.6           0.000    
    131      4     42     15       109.7           109.6           0.000    
    132      5     42     15       109.7           109.6           0.000    
    133      4     43     15       109.7           109.6           0.000    
    134      5     43     15       109.7           109.6           0.000    
    135      4     43     14       109.7           109.6           0.000    
    136      5     43     14       109.7           109.6           0.000    
    137      4     43     13       109.7           109.6           0.000    
    138      5     43     13       109.7           109.6           0.000    
    139      4     43     12       109.7           109.6           0.000    
    140      5     43     12       109.7           109.6           0.000    
    141      4     43     11       109.7           109.6           0.000    
    142      5     43     11       109.7           109.6           0.000    
    143      4     43     10       109.7           109.6           0.000    
    144      5     43     10       109.7           109.6           0.000    
    145      4     44     10       109.7           109.6           0.000    
    146      5     44     10       109.7           109.6           0.000    
    147      4     44      9       109.7           109.6           0.000    
    148      5     44      9       109.7           109.6           0.000    
    149      4     44      8       109.7           109.6           0.000    
    150      5     44      8       109.7           109.6           0.000    
    151      4     44      7       109.7           109.6           0.000    
    152      5     44      7       109.7           109.6           0.000    
    153      4     44      6       109.7           109.6           0.000    
    154      5     44      6       109.7           109.6           0.000    
    155      4     44      5       109.7           109.6           0.000    
    156      5     44      5       109.7           109.6           0.000    
    157      4     44      4       109.7           109.6           0.000    
    158      5     44      4       109.7           109.6           0.000    
    159      4     44      3       109.7           109.6           0.000    
    160      5     44      3       109.7           109.6           0.000    
    161      4     45      3       109.7           109.6           0.000    
    162      5     45      3       109.7           109.6           0.000    
    163      4     45      2       109.7           109.6           0.000    
    164      5     45      2       109.7           109.6           0.000    
    165      4     45      1       109.7           109.6           0.000    
    166      5     45      1       109.7           109.6           0.000    


    166 TIME-VARIANT SPECIFIED-HEAD CELLS

 SOLVING FOR HEAD 


     3 CALLS TO PCG ROUTINE FOR TIME STEP   1 IN STRESS PERIOD   95
    61 TOTAL ITERATIONS

 MAXIMUM HEAD CHANGE FOR EACH ITERATION (1 INDICATES THE FIRST INNER ITERATION):

    HEAD CHANGE    HEAD CHANGE    HEAD CHANGE    HEAD CHANGE    HEAD CHANGE 
   LAYER,ROW,COL  LAYER,ROW,COL  LAYER,ROW,COL  LAYER,ROW,COL  LAYER,ROW,COL
 ---------------------------------------------------------------------------
  1 -0.1393      0  0.7031E-01  0  0.4544E-01  0 -0.3785E-01  0 -0.3570E-01
   (  5, 43,  5)  (  5, 35,  1)  (  5, 39,  2)  (  5, 35,  2)  (  5, 36,  1)
  0 -0.4524E-01  0 -0.2851E-01  0 -0.2396E-01  0  0.2322E-01  0 -0.1722E-01
   (  5, 39,  1)  (  5, 36,  6)  (  5, 40,  6)  (  5, 39,  1)  (  5, 35,  7)
  0  0.1669E-01  0 -0.1245E-01  0  0.6218E-02  0  0.8871E-02  0 -0.4871E-02
   (  5, 35,  9)  (  5, 32,  9)  (  5, 28,  2)  (  5, 30,  9)  (  5, 36,  9)
  0  0.3462E-02  0  0.3686E-02  0  0.2587E-02  0  0.2188E-02  0  0.1749E-02
   (  5, 35,  4)  (  5, 27, 11)  (  5, 34,  8)  (  5, 31, 12)  (  5, 36,  7)
  0 -0.1581E-02  0 -0.1067E-02  0  0.6301E-03  0 -0.1139E-02  0 -0.7883E-03
   (  5, 37,  4)  (  5, 33,  6)  (  5, 35,  1)  (  5, 39,  1)  (  5, 38,  4)
  0  0.4393E-03  0  0.4398E-03  0 -0.3290E-03  0  0.2233E-03  0 -0.2513E-03
   (  5, 30, 11)  (  5, 38,  1)  (  5, 35,  1)  (  5, 35,  6)  (  5, 33,  3)
  1 -0.2187E-03  0 -0.1455E-03  0  0.1678E-03  0 -0.1764E-03  0 -0.2131E-03
   (  5, 13,  1)  (  5, 34,  3)  (  5, 39,  2)  (  5, 31,  9)  (  5, 37,  1)
  0  0.1488E-03  0 -0.1087E-03  0  0.8688E-04  0  0.6238E-04  0  0.7559E-04
   (  5, 34,  1)  (  5, 36,  1)  (  5, 24,  8)  (  5, 34,  3)  (  5, 41,  2)
  0 -0.6308E-04  0  0.2854E-04  0 -0.3274E-04  0  0.3115E-04  0 -0.2691E-04
   (  5, 39,  1)  (  5, 31,  3)  (  5, 30,  5)  (  5, 32,  9)  (  5, 34,  9)
  0 -0.1813E-04  0 -0.1540E-04  0 -0.1514E-04  0  0.1150E-04  0 -0.1306E-04
   (  5, 34,  3)  (  5, 25,  2)  (  5, 33,  5)  (  5, 39,  1)  (  5, 36,  9)
  0  0.4181E-05  0  0.6083E-05  0  0.4881E-05  0 -0.6452E-05  0  0.3536E-05
   (  5, 31,  4)  (  5, 39, 10)  (  5, 35,  1)  (  5, 38,  1)  (  5, 40,  6)
  0 -0.2820E-05  0  0.2500E-05  0 -0.2103E-05  0 -0.1481E-05  0  0.1324E-05
   (  5, 42,  6)  (  5, 37,  1)  (  5, 40,  1)  (  5, 34,  1)  (  5, 43,  5)
  1 -0.6632E-06
   (  5, 28,  3)

 MAXIMUM RESIDUAL FOR EACH ITERATION (1 INDICATES THE FIRST INNER ITERATION):

    RESIDUAL       RESIDUAL       RESIDUAL       RESIDUAL       RESIDUAL    
   LAYER,ROW,COL  LAYER,ROW,COL  LAYER,ROW,COL  LAYER,ROW,COL  LAYER,ROW,COL
 ---------------------------------------------------------------------------
  1  0.5953E-03  0  0.4628E-03  0  0.4228E-03  0  0.3862E-03  0  0.3369E-03
   (  4, 44,  2)  (  4, 44,  2)  (  4, 35, 35)  (  4, 35, 35)  (  4, 35, 35)
  0  0.2722E-03  0  0.2110E-03  0  0.1715E-03  0  0.1342E-03  0 -0.1057E-03
   (  4, 35, 35)  (  3, 40, 27)  (  3, 40, 27)  (  3, 40, 27)  (  3, 35, 35)
  0 -0.8948E-04  0 -0.7662E-04  0 -0.7059E-04  0 -0.5574E-04  0 -0.4358E-04
   (  3, 35, 35)  (  3, 35, 35)  (  3, 35, 35)  (  3, 35, 35)  (  4, 43,  4)
  0 -0.4071E-04  0 -0.3262E-04  0 -0.2479E-04  0 -0.2002E-04  0 -0.1582E-04
   (  4, 43,  4)  (  4, 43,  4)  (  4, 44,  2)  (  4, 44,  2)  (  4, 44,  2)
  0 -0.1263E-04  0 -0.1162E-04  0 -0.1112E-04  0 -0.9124E-05  0 -0.7099E-05
   (  4, 44,  2)  (  4, 34, 35)  (  4, 34, 35)  (  4, 34, 35)  (  4, 34, 35)
  0 -0.5346E-05  0 -0.4316E-05  0 -0.3884E-05  0 -0.3385E-05  0 -0.2634E-05
   (  4, 34, 35)  (  4, 34, 35)  (  4, 34, 35)  (  4, 34, 35)  (  4, 34, 35)
  1 -0.2506E-05  0 -0.2441E-05  0 -0.2253E-05  0 -0.1970E-05  0 -0.1743E-05
   (  4, 34, 35)  (  4, 34, 35)  (  4, 34, 35)  (  4, 34, 35)  (  4, 34, 35)
  0 -0.1335E-05  0 -0.1134E-05  0 -0.8496E-06  0 -0.6821E-06  0 -0.5266E-06
   (  4, 34, 35)  (  4, 34, 35)  (  4, 34, 35)  (  4, 34, 35)  (  4, 34, 35)
  0  0.4227E-06  0  0.3982E-06  0  0.3427E-06  0  0.2778E-06  0  0.2213E-06
   (  4, 35, 35)  (  4, 35, 35)  (  4, 35, 35)  (  4, 35, 35)  (  4, 35, 35)
  0  0.1970E-06  0  0.1615E-06  0  0.1179E-06  0  0.8360E-07  0  0.6158E-07
   (  4, 35, 35)  (  4, 35, 35)  (  4, 35, 35)  (  4, 35, 35)  (  4, 35, 35)
  0  0.5831E-07  0  0.4421E-07  0  0.3768E-07  0  0.2989E-07  0  0.2248E-07
   (  4, 35, 35)  (  4, 35, 35)  (  4, 35, 35)  (  4, 35, 35)  (  4, 35, 35)
  0  0.1701E-07  0  0.1428E-07  0  0.1060E-07  0  0.8654E-08  0  0.6551E-08
   (  4, 35, 35)  (  4, 35, 35)  (  4, 35, 35)  (  4, 35, 35)  (  3, 36, 35)
  1  0.6514E-08
   (  3, 36, 35)



 OUTPUT CONTROL FOR STRESS PERIOD   95   TIME STEP    1
    SAVE HEAD FOR ALL LAYERS
    SAVE DRAWDOWN FOR ALL LAYERS
    SAVE BUDGET
    PRINT BUDGET
 UBDSV1 SAVING "         STORAGE" ON UNIT   9 AT TIME STEP  1, STRESS PERIOD  95
 UBDSV2 SAVING "   CONSTANT HEAD" ON UNIT   9 AT TIME STEP  1, STRESS PERIOD  95
 UBDSV1 SAVING "FLOW RIGHT FACE " ON UNIT   9 AT TIME STEP  1, STRESS PERIOD  95
 UBDSV1 SAVING "FLOW FRONT FACE " ON UNIT   9 AT TIME STEP  1, STRESS PERIOD  95
 UBDSV1 SAVING "FLOW LOWER FACE " ON UNIT   9 AT TIME STEP  1, STRESS PERIOD  95
 UBDSV3 SAVING "        RECHARGE" ON UNIT   9 AT TIME STEP  1, STRESS PERIOD  95

 HEAD WILL BE SAVED ON UNIT   37 AT END OF TIME STEP    1, STRESS PERIOD   95

 DRAWDOWN WILL BE SAVED ON UNIT   38 AT END OF TIME STEP    1, STRESS PERIOD   95
1
  VOLUMETRIC BUDGET FOR ENTIRE MODEL AT END OF TIME STEP    1, STRESS PERIOD  95
  ------------------------------------------------------------------------------

     CUMULATIVE VOLUMES      L**3       RATES FOR THIS TIME STEP      L**3/T
     ------------------                 ------------------------

           IN:                                      IN:
           ---                                      ---
             STORAGE =       14605.6924               STORAGE =       1.9317E-03
       CONSTANT HEAD =       24238.0156         CONSTANT HEAD =       1.9859E-03
            RECHARGE =        1147.1112              RECHARGE =       1.0213E-04

            TOTAL IN =       39990.8164              TOTAL IN =       4.0197E-03

          OUT:                                     OUT:
          ----                                     ----
             STORAGE =       10897.1250               STORAGE =           0.0000
       CONSTANT HEAD =       29094.8516         CONSTANT HEAD =       4.0200E-03
            RECHARGE =           0.0000              RECHARGE =           0.0000

           TOTAL OUT =       39991.9766             TOTAL OUT =       4.0200E-03

            IN - OUT =          -1.1602              IN - OUT =      -2.6636E-07

 PERCENT DISCREPANCY =          -0.00     PERCENT DISCREPANCY =          -0.01






         TIME SUMMARY AT END OF TIME STEP    1 IN STRESS PERIOD   95
                    SECONDS     MINUTES      HOURS       DAYS        YEARS
                    -----------------------------------------------------------
   TIME STEP LENGTH  86400.      1440.0      24.000      1.0000     2.73785E-03
 STRESS PERIOD TIME  86400.      1440.0      24.000      1.0000     2.73785E-03
         TOTAL TIME 1.12320E+07 1.87200E+05  3120.0      130.00     0.35592    
1
1
                            STRESS PERIOD NO.   96, LENGTH =   259200.0    
                            -----------------------------------------------

                              NUMBER OF TIME STEPS =     3

                               MULTIPLIER FOR DELT =     1.000

                            INITIAL TIME STEP SIZE =   86400.00    

 REUSING RECH FROM LAST STRESS PERIOD

 CHD NO.   LAYER   ROW   COL    START HEAD        END HEAD         IFACE           
 ----------------------------------------------------------------------------------
      1      4      3      1       109.9           109.8           0.000    
      2      5      3      1       109.9           109.8           0.000    
      3      4      3      2       109.9           109.8           0.000    
      4      5      3      2       109.9           109.8           0.000    
      5      4      3      3       109.9           109.8           0.000    
      6      5      3      3       109.9           109.8           0.000    
      7      4      3      4       109.9           109.8           0.000    
      8      5      3      4       109.9           109.8           0.000    
      9      4      3      5       109.9           109.8           0.000    
     10      5      3      5       109.9           109.8           0.000    
     11      4      3      6       109.9           109.8           0.000    
     12      5      3      6       109.9           109.8           0.000    
     13      4      3      7       109.9           109.8           0.000    
     14      5      3      7       109.9           109.8           0.000    
     15      4      3      8       109.9           109.8           0.000    
     16      5      3      8       109.9           109.8           0.000    
     17      4      2      8       109.9           109.8           0.000    
     18      5      2      8       109.9           109.8           0.000    
     19      4      2      9       109.9           109.8           0.000    
     20      5      2      9       109.9           109.8           0.000    
     21      4      2     10       109.9           109.8           0.000    
     22      5      2     10       109.9           109.8           0.000    
     23      4      2     11       109.9           109.8           0.000    
     24      5      2     11       109.9           109.8           0.000    
     25      4      2     12       109.9           109.8           0.000    
     26      5      2     12       109.9           109.8           0.000    
     27      4      2     13       109.9           109.8           0.000    
     28      5      2     13       109.9           109.8           0.000    
     29      4      2     14       109.9           109.8           0.000    
     30      5      2     14       109.9           109.8           0.000    
     31      4      2     15       109.9           109.8           0.000    
     32      5      2     15       109.9           109.8           0.000    
     33      4      2     16       109.9           109.8           0.000    
     34      5      2     16       109.9           109.8           0.000    
     35      4      2     17       109.9           109.8           0.000    
     36      5      2     17       109.9           109.8           0.000    
     37      4      2     18       109.9           109.8           0.000    
     38      5      2     18       109.9           109.8           0.000    
     39      4      2     19       109.9           109.8           0.000    
     40      5      2     19       109.9           109.8           0.000    
     41      4      2     20       109.9           109.8           0.000    
     42      5      2     20       109.9           109.8           0.000    
     43      4      2     21       109.9           109.8           0.000    
     44      5      2     21       109.9           109.8           0.000    
     45      4      2     22       109.9           109.8           0.000    
     46      5      2     22       109.9           109.8           0.000    
     47      4      2     23       109.9           109.8           0.000    
     48      5      2     23       109.9           109.8           0.000    
     49      4      2     24       109.9           109.8           0.000    
     50      5      2     24       109.9           109.8           0.000    
     51      4      2     25       109.9           109.8           0.000    
     52      5      2     25       109.9           109.8           0.000    
     53      4      2     26       109.9           109.8           0.000    
     54      5      2     26       109.9           109.8           0.000    
     55      4      1     26       109.9           109.8           0.000    
     56      5      1     26       109.9           109.8           0.000    
     57      4      1     27       109.9           109.8           0.000    
     58      5      1     27       109.9           109.8           0.000    
     59      4      1     28       109.9           109.8           0.000    
     60      5      1     28       109.9           109.8           0.000    
     61      4      1     29       109.9           109.8           0.000    
     62      5      1     29       109.9           109.8           0.000    
     63      4      1     30       109.9           109.8           0.000    
     64      5      1     30       109.9           109.8           0.000    
     65      4      1     31       109.9           109.8           0.000    
     66      5      1     31       109.9           109.8           0.000    
     67      4      1     32       109.9           109.8           0.000    
     68      5      1     32       109.9           109.8           0.000    
     69      4      1     33       109.9           109.8           0.000    
     70      5      1     33       109.9           109.8           0.000    
     71      4      1     34       109.9           109.8           0.000    
     72      5      1     34       109.9           109.8           0.000    
     73      4      1     35       109.9           109.8           0.000    
     74      5      1     35       109.9           109.8           0.000    
     75      4     36     35       109.7           109.7           0.000    
     76      5     36     35       109.7           109.7           0.000    
     77      4     35     34       109.7           109.7           0.000    
     78      5     35     34       109.7           109.7           0.000    
     79      4     36     34       109.7           109.7           0.000    
     80      5     36     34       109.7           109.7           0.000    
     81      4     36     33       109.7           109.7           0.000    
     82      5     36     33       109.7           109.7           0.000    
     83      4     36     32       109.7           109.7           0.000    
     84      5     36     32       109.7           109.7           0.000    
     85      4     37     32       109.7           109.7           0.000    
     86      5     37     32       109.7           109.7           0.000    
     87      4     37     31       109.7           109.7           0.000    
     88      5     37     31       109.7           109.7           0.000    
     89      4     38     31       109.7           109.7           0.000    
     90      5     38     31       109.7           109.7           0.000    
     91      4     38     30       109.7           109.7           0.000    
     92      5     38     30       109.7           109.7           0.000    
     93      4     39     30       109.7           109.7           0.000    
     94      5     39     30       109.7           109.7           0.000    
     95      4     39     29       109.6           109.7           0.000    
     96      5     39     29       109.6           109.7           0.000    
     97      4     40     29       109.6           109.7           0.000    
     98      5     40     29       109.6           109.7           0.000    
     99      4     40     28       109.6           109.7           0.000    
    100      5     40     28       109.6           109.7           0.000    
    101      4     40     27       109.6           109.7           0.000    
    102      5     40     27       109.6           109.7           0.000    
    103      4     41     27       109.6           109.7           0.000    
    104      5     41     27       109.6           109.7           0.000    
    105      4     41     26       109.6           109.7           0.000    
    106      5     41     26       109.6           109.7           0.000    
    107      4     41     25       109.6           109.7           0.000    
    108      5     41     25       109.6           109.7           0.000    
    109      4     41     24       109.6           109.7           0.000    
    110      5     41     24       109.6           109.7           0.000    
    111      4     41     23       109.6           109.7           0.000    
    112      5     41     23       109.6           109.7           0.000    
    113      4     41     22       109.6           109.7           0.000    
    114      5     41     22       109.6           109.7           0.000    
    115      4     42     22       109.6           109.7           0.000    
    116      5     42     22       109.6           109.7           0.000    
    117      4     42     21       109.6           109.7           0.000    
    118      5     42     21       109.6           109.7           0.000    
    119      4     42     20       109.6           109.7           0.000    
    120      5     42     20       109.6           109.7           0.000    
    121      4     42     19       109.6           109.7           0.000    
    122      5     42     19       109.6           109.7           0.000    
    123      4     43     18       109.6           109.7           0.000    
    124      5     43     18       109.6           109.7           0.000    
    125      4     42     18       109.6           109.7           0.000    
    126      5     42     18       109.6           109.7           0.000    
    127      4     42     17       109.6           109.7           0.000    
    128      5     42     17       109.6           109.7           0.000    
    129      4     42     16       109.6           109.7           0.000    
    130      5     42     16       109.6           109.7           0.000    
    131      4     42     15       109.6           109.7           0.000    
    132      5     42     15       109.6           109.7           0.000    
    133      4     43     15       109.6           109.7           0.000    
    134      5     43     15       109.6           109.7           0.000    
    135      4     43     14       109.6           109.7           0.000    
    136      5     43     14       109.6           109.7           0.000    
    137      4     43     13       109.6           109.7           0.000    
    138      5     43     13       109.6           109.7           0.000    
    139      4     43     12       109.6           109.7           0.000    
    140      5     43     12       109.6           109.7           0.000    
    141      4     43     11       109.6           109.7           0.000    
    142      5     43     11       109.6           109.7           0.000    
    143      4     43     10       109.6           109.7           0.000    
    144      5     43     10       109.6           109.7           0.000    
    145      4     44     10       109.6           109.7           0.000    
    146      5     44     10       109.6           109.7           0.000    
    147      4     44      9       109.6           109.7           0.000    
    148      5     44      9       109.6           109.7           0.000    
    149      4     44      8       109.6           109.7           0.000    
    150      5     44      8       109.6           109.7           0.000    
    151      4     44      7       109.6           109.7           0.000    
    152      5     44      7       109.6           109.7           0.000    
    153      4     44      6       109.6           109.7           0.000    
    154      5     44      6       109.6           109.7           0.000    
    155      4     44      5       109.6           109.7           0.000    
    156      5     44      5       109.6           109.7           0.000    
    157      4     44      4       109.6           109.7           0.000    
    158      5     44      4       109.6           109.7           0.000    
    159      4     44      3       109.6           109.7           0.000    
    160      5     44      3       109.6           109.7           0.000    
    161      4     45      3       109.6           109.7           0.000    
    162      5     45      3       109.6           109.7           0.000    
    163      4     45      2       109.6           109.7           0.000    
    164      5     45      2       109.6           109.7           0.000    
    165      4     45      1       109.6           109.7           0.000    
    166      5     45      1       109.6           109.7           0.000    


    166 TIME-VARIANT SPECIFIED-HEAD CELLS

 SOLVING FOR HEAD 


     3 CALLS TO PCG ROUTINE FOR TIME STEP   1 IN STRESS PERIOD   96
    58 TOTAL ITERATIONS

 MAXIMUM HEAD CHANGE FOR EACH ITERATION (1 INDICATES THE FIRST INNER ITERATION):

    HEAD CHANGE    HEAD CHANGE    HEAD CHANGE    HEAD CHANGE    HEAD CHANGE 
   LAYER,ROW,COL  LAYER,ROW,COL  LAYER,ROW,COL  LAYER,ROW,COL  LAYER,ROW,COL
 ---------------------------------------------------------------------------
  1  0.4948E-01  0 -0.3230E-01  0 -0.2749E-01  0  0.2431E-01  0 -0.2470E-01
   (  5, 43,  5)  (  5, 37,  2)  (  5, 40,  2)  (  5, 36,  1)  (  5, 32,  3)
  0 -0.1950E-01  0  0.9997E-02  0 -0.1435E-01  0 -0.9265E-02  0  0.6595E-02
   (  5, 36,  2)  (  5, 25,  6)  (  5, 37,  1)  (  5, 37,  6)  (  5, 30, 11)
  0 -0.5869E-02  0 -0.4576E-02  0 -0.2835E-02  0  0.2909E-02  0 -0.2988E-02
   (  5, 33,  1)  (  5, 28, 11)  (  5, 35,  5)  (  5, 30,  2)  (  5, 33,  9)
  0  0.1694E-02  0  0.1749E-02  0 -0.1641E-02  0 -0.9883E-03  0 -0.8452E-03
   (  5, 34,  1)  (  5, 30,  8)  (  5, 35,  8)  (  5, 31,  1)  (  5, 36,  7)
  0 -0.6233E-03  0  0.4865E-03  0 -0.3092E-03  0  0.4468E-03  0 -0.3008E-03
   (  5, 38,  3)  (  5, 37,  1)  (  5, 29,  2)  (  5, 14,  1)  (  5, 13,  1)
  0 -0.1982E-03  0 -0.1706E-03  0  0.1464E-03  0 -0.1734E-03  0 -0.1083E-03
   (  5, 37,  1)  (  5, 34,  3)  (  5, 35,  1)  (  5, 38,  2)  (  5, 14,  2)
  1  0.8427E-04  0  0.8423E-04  0 -0.5468E-04  0  0.5707E-04  0 -0.6075E-04
   (  5, 14,  1)  (  5, 37,  1)  (  5, 27,  4)  (  5, 33,  3)  (  5, 38,  4)
  0  0.7743E-04  0 -0.4465E-04  0  0.3626E-04  0 -0.3000E-04  0  0.3951E-04
   (  5, 37,  1)  (  5, 34,  2)  (  5, 39,  5)  (  5, 23,  8)  (  5, 39,  1)
  0 -0.3475E-04  0 -0.1609E-04  0  0.8882E-05  0 -0.1131E-04  0 -0.8206E-05
   (  5, 41,  2)  (  5, 35,  3)  (  5, 31,  2)  (  5, 14,  1)  (  5, 30,  9)
  0  0.7658E-05  0  0.5256E-05  0 -0.5792E-05  0 -0.4343E-05  0  0.2505E-05
   (  5, 34,  9)  (  5, 34,  3)  (  5, 37,  4)  (  5, 21, 10)  (  5, 28, 11)
  0 -0.2729E-05  0  0.1579E-05  0 -0.1921E-05  0 -0.1707E-05  0 -0.1389E-05
   (  5, 36,  1)  (  5, 33,  4)  (  5, 32,  5)  (  5, 36,  1)  (  5, 30,  1)
  0 -0.1058E-05  0  0.7980E-06  1 -0.5614E-06
   (  5, 37,  6)  (  5, 41,  5)  (  5, 38,  1)

 MAXIMUM RESIDUAL FOR EACH ITERATION (1 INDICATES THE FIRST INNER ITERATION):

    RESIDUAL       RESIDUAL       RESIDUAL       RESIDUAL       RESIDUAL    
   LAYER,ROW,COL  LAYER,ROW,COL  LAYER,ROW,COL  LAYER,ROW,COL  LAYER,ROW,COL
 ---------------------------------------------------------------------------
  1  0.2170E-03  0  0.1825E-03  0  0.1524E-03  0  0.1272E-03  0  0.1062E-03
   (  3,  3,  1)  (  3,  3,  1)  (  3,  3,  1)  (  3,  3,  1)  (  3,  3,  1)
  0  0.8607E-04  0  0.7448E-04  0  0.5768E-04  0  0.4701E-04  0  0.3914E-04
   (  3,  3,  1)  (  3,  3,  1)  (  4, 43,  5)  (  4, 43,  4)  (  4, 43,  4)
  0  0.3275E-04  0  0.2889E-04  0  0.2633E-04  0  0.2348E-04  0  0.1897E-04
   (  4, 44,  2)  (  4, 44,  2)  (  4, 44,  2)  (  4, 44,  2)  (  4, 44,  2)
  0  0.1683E-04  0  0.1385E-04  0  0.1003E-04  0  0.7609E-05  0  0.5075E-05
   (  4, 44,  2)  (  4, 44,  2)  (  4, 44,  2)  (  4, 44,  2)  (  4, 44,  2)
  0  0.3936E-05  0 -0.3212E-05  0 -0.3095E-05  0  0.2405E-05  0  0.1891E-05
   (  4, 44,  2)  (  4, 43,  2)  (  4, 43,  2)  (  4, 34, 35)  (  4, 34, 35)
  0  0.1470E-05  0 -0.1306E-05  0 -0.1151E-05  0 -0.9882E-06  0 -0.7567E-06
   (  4, 34, 35)  (  3,  3,  2)  (  3,  3,  2)  (  3,  3,  2)  (  3,  3,  2)
  1 -0.7101E-06  0 -0.6350E-06  0 -0.6004E-06  0 -0.5608E-06  0 -0.5048E-06
   (  3,  3,  2)  (  3,  3,  2)  (  3,  3,  2)  (  3,  3,  2)  (  3,  3,  2)
  0 -0.4265E-06  0 -0.3757E-06  0 -0.2899E-06  0 -0.2363E-06  0 -0.1771E-06
   (  3,  3,  2)  (  3,  3,  2)  (  3,  3,  2)  (  3,  3,  2)  (  3,  3,  2)
  0 -0.1339E-06  0 -0.1015E-06  0 -0.9546E-07  0 -0.7055E-07  0  0.5611E-07
   (  3,  3,  2)  (  3,  3,  2)  (  3,  3,  2)  (  3,  3,  2)  (  3,  3,  1)
  0  0.4413E-07  0  0.3827E-07  0  0.3045E-07  0  0.2264E-07  0  0.1716E-07
   (  3,  3,  1)  (  3,  3,  1)  (  3,  3,  1)  (  3,  3,  1)  (  3,  3,  1)
  0  0.1467E-07  0  0.1333E-07  0  0.1185E-07  0  0.9031E-08  0  0.6672E-08
   (  3,  3,  1)  (  3,  3,  1)  (  3,  3,  1)  (  3,  3,  1)  (  3,  3,  1)
  0  0.4887E-08  0  0.3829E-08  1  0.3776E-08
   (  3,  3,  1)  (  3,  3,  1)  (  3,  3,  1)



 OUTPUT CONTROL FOR STRESS PERIOD   96   TIME STEP    1
    SAVE HEAD FOR ALL LAYERS
    SAVE DRAWDOWN FOR ALL LAYERS
    SAVE BUDGET
    PRINT BUDGET
 UBDSV1 SAVING "         STORAGE" ON UNIT   9 AT TIME STEP  1, STRESS PERIOD  96
 UBDSV2 SAVING "   CONSTANT HEAD" ON UNIT   9 AT TIME STEP  1, STRESS PERIOD  96
 UBDSV1 SAVING "FLOW RIGHT FACE " ON UNIT   9 AT TIME STEP  1, STRESS PERIOD  96
 UBDSV1 SAVING "FLOW FRONT FACE " ON UNIT   9 AT TIME STEP  1, STRESS PERIOD  96
 UBDSV1 SAVING "FLOW LOWER FACE " ON UNIT   9 AT TIME STEP  1, STRESS PERIOD  96
 UBDSV3 SAVING "        RECHARGE" ON UNIT   9 AT TIME STEP  1, STRESS PERIOD  96

 HEAD WILL BE SAVED ON UNIT   37 AT END OF TIME STEP    1, STRESS PERIOD   96

 DRAWDOWN WILL BE SAVED ON UNIT   38 AT END OF TIME STEP    1, STRESS PERIOD   96
1
  VOLUMETRIC BUDGET FOR ENTIRE MODEL AT END OF TIME STEP    1, STRESS PERIOD  96
  ------------------------------------------------------------------------------

     CUMULATIVE VOLUMES      L**3       RATES FOR THIS TIME STEP      L**3/T
     ------------------                 ------------------------

           IN:                                      IN:
           ---                                      ---
             STORAGE =       14672.7871               STORAGE =       7.7656E-04
       CONSTANT HEAD =       24408.8418         CONSTANT HEAD =       1.9771E-03
            RECHARGE =        1155.9352              RECHARGE =       1.0213E-04

            TOTAL IN =       40237.5625              TOTAL IN =       2.8558E-03

          OUT:                                     OUT:
          ----                                     ----
             STORAGE =       10898.8613               STORAGE =       2.0099E-05
       CONSTANT HEAD =       29339.8711         CONSTANT HEAD =       2.8359E-03
            RECHARGE =           0.0000              RECHARGE =           0.0000

           TOTAL OUT =       40238.7344             TOTAL OUT =       2.8560E-03

            IN - OUT =          -1.1719              IN - OUT =      -1.4249E-07

 PERCENT DISCREPANCY =          -0.00     PERCENT DISCREPANCY =          -0.00






         TIME SUMMARY AT END OF TIME STEP    1 IN STRESS PERIOD   96
                    SECONDS     MINUTES      HOURS       DAYS        YEARS
                    -----------------------------------------------------------
   TIME STEP LENGTH  86400.      1440.0      24.000      1.0000     2.73785E-03
 STRESS PERIOD TIME  86400.      1440.0      24.000      1.0000     2.73785E-03
         TOTAL TIME 1.13184E+07 1.88640E+05  3144.0      131.00     0.35866    
1

 SOLVING FOR HEAD 
     3 CALLS TO PCG ROUTINE FOR TIME STEP   2 IN STRESS PERIOD   96
    58 TOTAL ITERATIONS

 MAXIMUM HEAD CHANGE FOR EACH ITERATION (1 INDICATES THE FIRST INNER ITERATION):

    HEAD CHANGE    HEAD CHANGE    HEAD CHANGE    HEAD CHANGE    HEAD CHANGE 
   LAYER,ROW,COL  LAYER,ROW,COL  LAYER,ROW,COL  LAYER,ROW,COL  LAYER,ROW,COL
 ---------------------------------------------------------------------------
  1  0.5606E-01  0 -0.3556E-01  0  0.2084E-01  0 -0.1682E-01  0  0.2436E-01
   (  5, 43,  5)  (  5, 36,  2)  (  5, 32,  2)  (  5, 28,  3)  (  5, 37,  1)
  0 -0.1515E-01  0  0.1133E-01  0 -0.1607E-01  0 -0.1053E-01  0 -0.7474E-02
   (  5, 35,  2)  (  5, 40,  1)  (  5, 37,  1)  (  5, 38,  6)  (  5, 40,  1)
  0  0.6020E-02  0  0.4691E-02  0 -0.2343E-02  0 -0.2656E-02  0  0.2964E-02
   (  5, 38,  1)  (  5, 33,  9)  (  5, 30,  3)  (  5, 31,  9)  (  5, 37,  8)
  0 -0.1425E-02  0 -0.2030E-02  0  0.1006E-02  0 -0.8997E-03  0  0.6880E-03
   (  5, 36,  4)  (  5, 34,  8)  (  5, 33,  9)  (  5, 35,  7)  (  5, 33,  8)
  0 -0.5550E-03  0 -0.4279E-03  0 -0.3048E-03  0  0.3770E-03  0 -0.3230E-03
   (  5, 32,  4)  (  5, 35,  1)  (  5, 34,  4)  (  5, 31, 10)  (  5, 40,  5)
  0  0.1948E-03  0 -0.2312E-03  0  0.1623E-03  0 -0.1281E-03  0  0.1116E-03
   (  5, 38,  4)  (  5, 37,  1)  (  5, 40,  2)  (  5, 35,  3)  (  5, 35,  1)
  1  0.7477E-04  0  0.5787E-04  0 -0.6201E-04  0  0.4133E-04  0  0.5022E-04
   (  5, 13,  1)  (  5, 35,  3)  (  5, 33,  4)  (  5, 29,  4)  (  5, 37,  1)
  0 -0.3839E-04  0 -0.4073E-04  0  0.5265E-04  0 -0.3312E-04  0  0.3643E-04
   (  5, 31,  5)  (  5, 37,  2)  (  5, 40,  5)  (  5, 37,  1)  (  5, 39,  1)
  0 -0.3133E-04  0  0.1319E-04  0 -0.9525E-05  0  0.1013E-04  0 -0.8847E-05
   (  5, 41,  2)  (  5, 39,  2)  (  5, 28,  2)  (  5, 30,  9)  (  5, 29,  8)
  0 -0.8032E-05  0  0.4606E-05  0 -0.6043E-05  0  0.3852E-05  0 -0.2551E-05
   (  5, 33,  1)  (  5, 36,  1)  (  5, 39,  1)  (  5, 14,  1)  (  5, 16,  1)
  0 -0.2199E-05  0  0.1425E-05  0 -0.2291E-05  0  0.1602E-05  0 -0.1298E-05
   (  5, 32,  5)  (  5, 36,  4)  (  5, 36,  1)  (  5, 38,  1)  (  5, 40,  1)
  0 -0.1022E-05  0  0.8471E-06  1 -0.3399E-06
   (  5, 37,  6)  (  5, 39,  7)  (  5, 37,  5)

 MAXIMUM RESIDUAL FOR EACH ITERATION (1 INDICATES THE FIRST INNER ITERATION):

    RESIDUAL       RESIDUAL       RESIDUAL       RESIDUAL       RESIDUAL    
   LAYER,ROW,COL  LAYER,ROW,COL  LAYER,ROW,COL  LAYER,ROW,COL  LAYER,ROW,COL
 ---------------------------------------------------------------------------
  1  0.1867E-03  0  0.1535E-03  0  0.1377E-03  0  0.1242E-03  0  0.1010E-03
   (  3,  3,  1)  (  3,  3,  1)  (  3,  3,  1)  (  3,  3,  1)  (  3,  3,  1)
  0  0.8538E-04  0  0.7124E-04  0  0.5410E-04  0  0.4166E-04  0  0.3542E-04
   (  3,  3,  1)  (  3,  3,  1)  (  4, 43,  5)  (  4, 43,  4)  (  4, 43,  4)
  0  0.2989E-04  0  0.2589E-04  0  0.2501E-04  0  0.2058E-04  0  0.1641E-04
   (  4, 44,  2)  (  4, 44,  2)  (  4, 44,  2)  (  4, 44,  2)  (  4, 44,  2)
  0  0.1513E-04  0  0.1176E-04  0  0.8788E-05  0  0.6678E-05  0  0.4859E-05
   (  4, 44,  2)  (  4, 44,  2)  (  4, 44,  2)  (  4, 44,  2)  (  4, 44,  2)
  0  0.3686E-05  0  0.3097E-05  0  0.2924E-05  0  0.2360E-05  0  0.1787E-05
   (  4, 44,  2)  (  4, 34, 35)  (  4, 34, 35)  (  4, 34, 35)  (  4, 34, 35)
  0  0.1376E-05  0 -0.1208E-05  0 -0.9888E-06  0 -0.9013E-06  0 -0.6992E-06
   (  4, 34, 35)  (  3,  3,  2)  (  3,  3,  2)  (  3,  3,  2)  (  3,  3,  2)
  1 -0.6607E-06  0 -0.6329E-06  0 -0.5685E-06  0 -0.5389E-06  0 -0.4844E-06
   (  3,  3,  2)  (  3,  3,  2)  (  3,  3,  2)  (  3,  3,  2)  (  3,  3,  2)
  0 -0.4025E-06  0 -0.3590E-06  0 -0.2723E-06  0 -0.2154E-06  0 -0.1628E-06
   (  3,  3,  2)  (  3,  3,  2)  (  3,  3,  2)  (  3,  3,  2)  (  3,  3,  2)
  0 -0.1157E-06  0 -0.8779E-07  0 -0.8048E-07  0  0.6132E-07  0  0.4817E-07
   (  3,  3,  2)  (  3,  3,  2)  (  3,  3,  2)  (  3,  3,  1)  (  3,  3,  1)
  0  0.3836E-07  0  0.3471E-07  0  0.2621E-07  0  0.1981E-07  0  0.1520E-07
   (  3,  3,  1)  (  3,  3,  1)  (  3,  3,  1)  (  3,  3,  1)  (  3,  3,  1)
  0  0.1373E-07  0  0.1228E-07  0  0.1062E-07  0  0.8202E-08  0  0.6292E-08
   (  3,  3,  1)  (  3,  3,  1)  (  3,  3,  1)  (  3,  3,  1)  (  3,  3,  1)
  0  0.4654E-08  0  0.3488E-08  1  0.3447E-08
   (  3,  3,  1)  (  3,  3,  1)  (  3,  3,  1)



 OUTPUT CONTROL FOR STRESS PERIOD   96   TIME STEP    2
    SAVE HEAD FOR ALL LAYERS
    SAVE DRAWDOWN FOR ALL LAYERS
    SAVE BUDGET
    PRINT BUDGET
 UBDSV1 SAVING "         STORAGE" ON UNIT   9 AT TIME STEP  2, STRESS PERIOD  96
 UBDSV2 SAVING "   CONSTANT HEAD" ON UNIT   9 AT TIME STEP  2, STRESS PERIOD  96
 UBDSV1 SAVING "FLOW RIGHT FACE " ON UNIT   9 AT TIME STEP  2, STRESS PERIOD  96
 UBDSV1 SAVING "FLOW FRONT FACE " ON UNIT   9 AT TIME STEP  2, STRESS PERIOD  96
 UBDSV1 SAVING "FLOW LOWER FACE " ON UNIT   9 AT TIME STEP  2, STRESS PERIOD  96
 UBDSV3 SAVING "        RECHARGE" ON UNIT   9 AT TIME STEP  2, STRESS PERIOD  96

 HEAD WILL BE SAVED ON UNIT   37 AT END OF TIME STEP    2, STRESS PERIOD   96

 DRAWDOWN WILL BE SAVED ON UNIT   38 AT END OF TIME STEP    2, STRESS PERIOD   96
1
  VOLUMETRIC BUDGET FOR ENTIRE MODEL AT END OF TIME STEP    2, STRESS PERIOD  96
  ------------------------------------------------------------------------------

     CUMULATIVE VOLUMES      L**3       RATES FOR THIS TIME STEP      L**3/T
     ------------------                 ------------------------

           IN:                                      IN:
           ---                                      ---
             STORAGE =       14713.9746               STORAGE =       4.7671E-04
       CONSTANT HEAD =       24557.6895         CONSTANT HEAD =       1.7228E-03
            RECHARGE =        1164.7592              RECHARGE =       1.0213E-04

            TOTAL IN =       40436.4219              TOTAL IN =       2.3016E-03

          OUT:                                     OUT:
          ----                                     ----
             STORAGE =       10903.9297               STORAGE =       5.8658E-05
       CONSTANT HEAD =       29533.6758         CONSTANT HEAD =       2.2431E-03
            RECHARGE =           0.0000              RECHARGE =           0.0000

           TOTAL OUT =       40437.6055             TOTAL OUT =       2.3018E-03

            IN - OUT =          -1.1836              IN - OUT =      -1.5250E-07

 PERCENT DISCREPANCY =          -0.00     PERCENT DISCREPANCY =          -0.01






         TIME SUMMARY AT END OF TIME STEP    2 IN STRESS PERIOD   96
                    SECONDS     MINUTES      HOURS       DAYS        YEARS
                    -----------------------------------------------------------
   TIME STEP LENGTH  86400.      1440.0      24.000      1.0000     2.73785E-03
 STRESS PERIOD TIME 1.72800E+05  2880.0      48.000      2.0000     5.47570E-03
         TOTAL TIME 1.14048E+07 1.90080E+05  3168.0      132.00     0.36140    
1

 SOLVING FOR HEAD 
     3 CALLS TO PCG ROUTINE FOR TIME STEP   3 IN STRESS PERIOD   96
    56 TOTAL ITERATIONS

 MAXIMUM HEAD CHANGE FOR EACH ITERATION (1 INDICATES THE FIRST INNER ITERATION):

    HEAD CHANGE    HEAD CHANGE    HEAD CHANGE    HEAD CHANGE    HEAD CHANGE 
   LAYER,ROW,COL  LAYER,ROW,COL  LAYER,ROW,COL  LAYER,ROW,COL  LAYER,ROW,COL
 ---------------------------------------------------------------------------
  1  0.5740E-01  0 -0.3513E-01  0  0.1868E-01  0 -0.1584E-01  0  0.2282E-01
   (  5, 43,  5)  (  5, 35,  1)  (  5, 31,  2)  (  5, 28,  4)  (  5, 37,  1)
  0 -0.1362E-01  0  0.1210E-01  0 -0.1638E-01  0 -0.9988E-02  0 -0.7789E-02
   (  5, 35,  2)  (  5, 40,  1)  (  5, 38,  1)  (  5, 37,  6)  (  5, 40,  1)
  0  0.5796E-02  0 -0.4024E-02  0  0.3547E-02  0 -0.3865E-02  0  0.3173E-02
   (  5, 38,  1)  (  5, 29,  3)  (  5, 33,  9)  (  5, 31,  9)  (  5, 36,  8)
  0 -0.1542E-02  0 -0.1611E-02  0 -0.1261E-02  0 -0.9840E-03  0 -0.9391E-03
   (  5, 36,  4)  (  5, 33,  8)  (  5, 15,  1)  (  5, 29,  9)  (  5, 38,  4)
  0  0.4889E-03  0 -0.5908E-03  0  0.5360E-03  0 -0.4203E-03  0  0.3227E-03
   (  5, 37,  1)  (  5, 32,  4)  (  5, 34,  7)  (  5, 41,  2)  (  5, 39,  1)
  0 -0.3008E-03  0  0.1724E-03  0  0.1218E-03  0 -0.1605E-03  0 -0.1039E-03
   (  5, 37,  1)  (  5, 39,  4)  (  5, 35,  1)  (  5, 36,  3)  (  5, 32,  4)
  1  0.7297E-04  0  0.6748E-04  0 -0.4721E-04  0 -0.6854E-04  0  0.4083E-04
   (  5, 30,  2)  (  5, 12,  1)  (  5, 34,  1)  (  5, 13,  1)  (  5, 37,  1)
  0 -0.3926E-04  0 -0.3938E-04  0  0.4088E-04  0 -0.2956E-04  0  0.3381E-04
   (  5, 31,  5)  (  5, 37,  2)  (  5, 39,  4)  (  5, 37,  1)  (  5, 39,  1)
  0 -0.2030E-04  0  0.1419E-04  0 -0.1663E-04  0  0.9116E-05  0 -0.7501E-05
   (  5, 41,  2)  (  5, 37,  4)  (  5, 32,  9)  (  5, 34,  8)  (  5, 29,  7)
  0 -0.8380E-05  0  0.7599E-05  0 -0.6261E-05  0  0.4100E-05  0  0.2297E-05
   (  5, 33,  1)  (  5, 31,  9)  (  5, 34,  9)  (  5, 14,  1)  (  5, 38,  5)
  0 -0.1974E-05  0 -0.1847E-05  0  0.2516E-05  0 -0.1447E-05  0  0.8976E-06
   (  5, 32,  5)  (  5, 36,  1)  (  5, 38,  1)  (  5, 40,  1)  (  5, 33,  8)
  1 -0.6008E-06
   (  5, 32,  7)

 MAXIMUM RESIDUAL FOR EACH ITERATION (1 INDICATES THE FIRST INNER ITERATION):

    RESIDUAL       RESIDUAL       RESIDUAL       RESIDUAL       RESIDUAL    
   LAYER,ROW,COL  LAYER,ROW,COL  LAYER,ROW,COL  LAYER,ROW,COL  LAYER,ROW,COL
 ---------------------------------------------------------------------------
  1  0.1803E-03  0  0.1489E-03  0  0.1351E-03  0  0.1216E-03  0  0.1011E-03
   (  3,  3,  1)  (  3,  3,  1)  (  3,  3,  1)  (  3,  3,  1)  (  3,  3,  1)
  0  0.8603E-04  0  0.7054E-04  0  0.5355E-04  0  0.4137E-04  0  0.3463E-04
   (  3,  3,  1)  (  3,  3,  1)  (  3,  3,  1)  (  4, 43,  4)  (  4, 43,  4)
  0  0.2878E-04  0  0.2643E-04  0  0.2420E-04  0  0.2020E-04  0  0.1639E-04
   (  4, 44,  2)  (  4, 44,  2)  (  4, 44,  2)  (  4, 44,  2)  (  4, 44,  2)
  0  0.1452E-04  0  0.1216E-04  0  0.9266E-05  0  0.7136E-05  0  0.5238E-05
   (  4, 44,  2)  (  4, 44,  2)  (  4, 44,  2)  (  4, 44,  2)  (  4, 44,  2)
  0  0.4580E-05  0  0.3994E-05  0  0.3062E-05  0  0.2358E-05  0  0.1755E-05
   (  4, 44,  2)  (  4, 44,  2)  (  4, 34, 35)  (  4, 34, 35)  (  4, 34, 35)
  0  0.1397E-05  0 -0.1179E-05  0 -0.1056E-05  0 -0.8773E-06  0 -0.7264E-06
   (  4, 34, 35)  (  3,  3,  2)  (  3,  3,  2)  (  3,  3,  2)  (  3,  3,  2)
  1 -0.7242E-06  0 -0.6673E-06  0 -0.6443E-06  0 -0.5508E-06  0 -0.4930E-06
   (  3,  3,  2)  (  3,  3,  2)  (  3,  3,  2)  (  3,  3,  2)  (  3,  3,  2)
  0 -0.4022E-06  0 -0.3618E-06  0 -0.2704E-06  0 -0.2134E-06  0 -0.1599E-06
   (  3,  3,  2)  (  3,  3,  2)  (  3,  3,  2)  (  3,  3,  2)  (  3,  3,  2)
  0 -0.1299E-06  0 -0.1092E-06  0  0.7995E-07  0  0.6027E-07  0  0.5329E-07
   (  3,  3,  2)  (  3,  3,  2)  (  3,  3,  1)  (  3,  3,  1)  (  3,  3,  1)
  0  0.4384E-07  0  0.3369E-07  0  0.2533E-07  0  0.1900E-07  0  0.1546E-07
   (  3,  3,  1)  (  3,  3,  1)  (  3,  3,  1)  (  3,  3,  1)  (  3,  3,  1)
  0  0.1398E-07  0  0.1259E-07  0  0.9701E-08  0  0.7409E-08  0  0.5785E-08
   (  3,  3,  1)  (  3,  3,  1)  (  3,  3,  1)  (  3,  3,  1)  (  3,  3,  1)
  1  0.5670E-08
   (  3,  3,  1)



 OUTPUT CONTROL FOR STRESS PERIOD   96   TIME STEP    3
    SAVE HEAD FOR ALL LAYERS
    SAVE DRAWDOWN FOR ALL LAYERS
    SAVE BUDGET
    PRINT BUDGET
 UBDSV1 SAVING "         STORAGE" ON UNIT   9 AT TIME STEP  3, STRESS PERIOD  96
 UBDSV2 SAVING "   CONSTANT HEAD" ON UNIT   9 AT TIME STEP  3, STRESS PERIOD  96
 UBDSV1 SAVING "FLOW RIGHT FACE " ON UNIT   9 AT TIME STEP  3, STRESS PERIOD  96
 UBDSV1 SAVING "FLOW FRONT FACE " ON UNIT   9 AT TIME STEP  3, STRESS PERIOD  96
 UBDSV1 SAVING "FLOW LOWER FACE " ON UNIT   9 AT TIME STEP  3, STRESS PERIOD  96
 UBDSV3 SAVING "        RECHARGE" ON UNIT   9 AT TIME STEP  3, STRESS PERIOD  96

 HEAD WILL BE SAVED ON UNIT   37 AT END OF TIME STEP    3, STRESS PERIOD   96

 DRAWDOWN WILL BE SAVED ON UNIT   38 AT END OF TIME STEP    3, STRESS PERIOD   96
1
  VOLUMETRIC BUDGET FOR ENTIRE MODEL AT END OF TIME STEP    3, STRESS PERIOD  96
  ------------------------------------------------------------------------------

     CUMULATIVE VOLUMES      L**3       RATES FOR THIS TIME STEP      L**3/T
     ------------------                 ------------------------

           IN:                                      IN:
           ---                                      ---
             STORAGE =       14747.6162               STORAGE =       3.8937E-04
       CONSTANT HEAD =       24676.5664         CONSTANT HEAD =       1.3759E-03
            RECHARGE =        1173.5831              RECHARGE =       1.0213E-04

            TOTAL IN =       40597.7656              TOTAL IN =       1.8674E-03

          OUT:                                     OUT:
          ----                                     ----
             STORAGE =       10910.7480               STORAGE =       7.8912E-05
       CONSTANT HEAD =       29688.2168         CONSTANT HEAD =       1.7887E-03
            RECHARGE =           0.0000              RECHARGE =           0.0000

           TOTAL OUT =       40598.9648             TOTAL OUT =       1.8676E-03

            IN - OUT =          -1.1992              IN - OUT =      -1.8661E-07

 PERCENT DISCREPANCY =          -0.00     PERCENT DISCREPANCY =          -0.01






         TIME SUMMARY AT END OF TIME STEP    3 IN STRESS PERIOD   96
                    SECONDS     MINUTES      HOURS       DAYS        YEARS
                    -----------------------------------------------------------
   TIME STEP LENGTH  86400.      1440.0      24.000      1.0000     2.73785E-03
 STRESS PERIOD TIME 2.59200E+05  4320.0      72.000      3.0000     8.21355E-03
         TOTAL TIME 1.14912E+07 1.91520E+05  3192.0      133.00     0.36413    
1
1
                            STRESS PERIOD NO.   97, LENGTH =   86400.00    
                            -----------------------------------------------

                              NUMBER OF TIME STEPS =     1

                               MULTIPLIER FOR DELT =     1.000

                            INITIAL TIME STEP SIZE =   86400.00    

 REUSING RECH FROM LAST STRESS PERIOD

 CHD NO.   LAYER   ROW   COL    START HEAD        END HEAD         IFACE           
 ----------------------------------------------------------------------------------
      1      4      3      1       109.8           109.9           0.000    
      2      5      3      1       109.8           109.9           0.000    
      3      4      3      2       109.8           109.9           0.000    
      4      5      3      2       109.8           109.9           0.000    
      5      4      3      3       109.8           109.9           0.000    
      6      5      3      3       109.8           109.9           0.000    
      7      4      3      4       109.8           109.9           0.000    
      8      5      3      4       109.8           109.9           0.000    
      9      4      3      5       109.8           109.9           0.000    
     10      5      3      5       109.8           109.9           0.000    
     11      4      3      6       109.8           109.9           0.000    
     12      5      3      6       109.8           109.9           0.000    
     13      4      3      7       109.8           109.9           0.000    
     14      5      3      7       109.8           109.9           0.000    
     15      4      3      8       109.8           109.9           0.000    
     16      5      3      8       109.8           109.9           0.000    
     17      4      2      8       109.8           109.9           0.000    
     18      5      2      8       109.8           109.9           0.000    
     19      4      2      9       109.8           109.9           0.000    
     20      5      2      9       109.8           109.9           0.000    
     21      4      2     10       109.8           109.9           0.000    
     22      5      2     10       109.8           109.9           0.000    
     23      4      2     11       109.8           109.9           0.000    
     24      5      2     11       109.8           109.9           0.000    
     25      4      2     12       109.8           109.9           0.000    
     26      5      2     12       109.8           109.9           0.000    
     27      4      2     13       109.8           109.9           0.000    
     28      5      2     13       109.8           109.9           0.000    
     29      4      2     14       109.8           109.9           0.000    
     30      5      2     14       109.8           109.9           0.000    
     31      4      2     15       109.8           109.9           0.000    
     32      5      2     15       109.8           109.9           0.000    
     33      4      2     16       109.8           109.9           0.000    
     34      5      2     16       109.8           109.9           0.000    
     35      4      2     17       109.8           109.9           0.000    
     36      5      2     17       109.8           109.9           0.000    
     37      4      2     18       109.8           109.9           0.000    
     38      5      2     18       109.8           109.9           0.000    
     39      4      2     19       109.8           109.9           0.000    
     40      5      2     19       109.8           109.9           0.000    
     41      4      2     20       109.8           109.9           0.000    
     42      5      2     20       109.8           109.9           0.000    
     43      4      2     21       109.8           109.9           0.000    
     44      5      2     21       109.8           109.9           0.000    
     45      4      2     22       109.8           109.9           0.000    
     46      5      2     22       109.8           109.9           0.000    
     47      4      2     23       109.8           109.9           0.000    
     48      5      2     23       109.8           109.9           0.000    
     49      4      2     24       109.8           109.9           0.000    
     50      5      2     24       109.8           109.9           0.000    
     51      4      2     25       109.8           109.9           0.000    
     52      5      2     25       109.8           109.9           0.000    
     53      4      2     26       109.8           109.9           0.000    
     54      5      2     26       109.8           109.9           0.000    
     55      4      1     26       109.8           109.9           0.000    
     56      5      1     26       109.8           109.9           0.000    
     57      4      1     27       109.8           109.9           0.000    
     58      5      1     27       109.8           109.9           0.000    
     59      4      1     28       109.8           109.9           0.000    
     60      5      1     28       109.8           109.9           0.000    
     61      4      1     29       109.8           109.9           0.000    
     62      5      1     29       109.8           109.9           0.000    
     63      4      1     30       109.8           109.9           0.000    
     64      5      1     30       109.8           109.9           0.000    
     65      4      1     31       109.8           109.9           0.000    
     66      5      1     31       109.8           109.9           0.000    
     67      4      1     32       109.8           109.9           0.000    
     68      5      1     32       109.8           109.9           0.000    
     69      4      1     33       109.8           109.9           0.000    
     70      5      1     33       109.8           109.9           0.000    
     71      4      1     34       109.8           109.9           0.000    
     72      5      1     34       109.8           109.9           0.000    
     73      4      1     35       109.8           109.9           0.000    
     74      5      1     35       109.8           109.9           0.000    
     75      4     36     35       109.7           109.8           0.000    
     76      5     36     35       109.7           109.8           0.000    
     77      4     35     34       109.7           109.8           0.000    
     78      5     35     34       109.7           109.8           0.000    
     79      4     36     34       109.7           109.8           0.000    
     80      5     36     34       109.7           109.8           0.000    
     81      4     36     33       109.7           109.8           0.000    
     82      5     36     33       109.7           109.8           0.000    
     83      4     36     32       109.7           109.8           0.000    
     84      5     36     32       109.7           109.8           0.000    
     85      4     37     32       109.7           109.8           0.000    
     86      5     37     32       109.7           109.8           0.000    
     87      4     37     31       109.7           109.8           0.000    
     88      5     37     31       109.7           109.8           0.000    
     89      4     38     31       109.7           109.8           0.000    
     90      5     38     31       109.7           109.8           0.000    
     91      4     38     30       109.7           109.8           0.000    
     92      5     38     30       109.7           109.8           0.000    
     93      4     39     30       109.7           109.8           0.000    
     94      5     39     30       109.7           109.8           0.000    
     95      4     39     29       109.7           109.8           0.000    
     96      5     39     29       109.7           109.8           0.000    
     97      4     40     29       109.7           109.8           0.000    
     98      5     40     29       109.7           109.8           0.000    
     99      4     40     28       109.7           109.8           0.000    
    100      5     40     28       109.7           109.8           0.000    
    101      4     40     27       109.7           109.8           0.000    
    102      5     40     27       109.7           109.8           0.000    
    103      4     41     27       109.7           109.8           0.000    
    104      5     41     27       109.7           109.8           0.000    
    105      4     41     26       109.7           109.8           0.000    
    106      5     41     26       109.7           109.8           0.000    
    107      4     41     25       109.7           109.8           0.000    
    108      5     41     25       109.7           109.8           0.000    
    109      4     41     24       109.7           109.7           0.000    
    110      5     41     24       109.7           109.7           0.000    
    111      4     41     23       109.7           109.7           0.000    
    112      5     41     23       109.7           109.7           0.000    
    113      4     41     22       109.7           109.7           0.000    
    114      5     41     22       109.7           109.7           0.000    
    115      4     42     22       109.7           109.7           0.000    
    116      5     42     22       109.7           109.7           0.000    
    117      4     42     21       109.7           109.7           0.000    
    118      5     42     21       109.7           109.7           0.000    
    119      4     42     20       109.7           109.7           0.000    
    120      5     42     20       109.7           109.7           0.000    
    121      4     42     19       109.7           109.7           0.000    
    122      5     42     19       109.7           109.7           0.000    
    123      4     43     18       109.7           109.7           0.000    
    124      5     43     18       109.7           109.7           0.000    
    125      4     42     18       109.7           109.7           0.000    
    126      5     42     18       109.7           109.7           0.000    
    127      4     42     17       109.7           109.7           0.000    
    128      5     42     17       109.7           109.7           0.000    
    129      4     42     16       109.7           109.7           0.000    
    130      5     42     16       109.7           109.7           0.000    
    131      4     42     15       109.7           109.7           0.000    
    132      5     42     15       109.7           109.7           0.000    
    133      4     43     15       109.7           109.7           0.000    
    134      5     43     15       109.7           109.7           0.000    
    135      4     43     14       109.7           109.7           0.000    
    136      5     43     14       109.7           109.7           0.000    
    137      4     43     13       109.7           109.7           0.000    
    138      5     43     13       109.7           109.7           0.000    
    139      4     43     12       109.7           109.7           0.000    
    140      5     43     12       109.7           109.7           0.000    
    141      4     43     11       109.7           109.7           0.000    
    142      5     43     11       109.7           109.7           0.000    
    143      4     43     10       109.7           109.7           0.000    
    144      5     43     10       109.7           109.7           0.000    
    145      4     44     10       109.7           109.7           0.000    
    146      5     44     10       109.7           109.7           0.000    
    147      4     44      9       109.7           109.7           0.000    
    148      5     44      9       109.7           109.7           0.000    
    149      4     44      8       109.7           109.7           0.000    
    150      5     44      8       109.7           109.7           0.000    
    151      4     44      7       109.7           109.7           0.000    
    152      5     44      7       109.7           109.7           0.000    
    153      4     44      6       109.7           109.7           0.000    
    154      5     44      6       109.7           109.7           0.000    
    155      4     44      5       109.7           109.7           0.000    
    156      5     44      5       109.7           109.7           0.000    
    157      4     44      4       109.7           109.7           0.000    
    158      5     44      4       109.7           109.7           0.000    
    159      4     44      3       109.7           109.7           0.000    
    160      5     44      3       109.7           109.7           0.000    
    161      4     45      3       109.7           109.7           0.000    
    162      5     45      3       109.7           109.7           0.000    
    163      4     45      2       109.7           109.7           0.000    
    164      5     45      2       109.7           109.7           0.000    
    165      4     45      1       109.7           109.7           0.000    
    166      5     45      1       109.7           109.7           0.000    


    166 TIME-VARIANT SPECIFIED-HEAD CELLS

 SOLVING FOR HEAD 


     3 CALLS TO PCG ROUTINE FOR TIME STEP   1 IN STRESS PERIOD   97
    61 TOTAL ITERATIONS

 MAXIMUM HEAD CHANGE FOR EACH ITERATION (1 INDICATES THE FIRST INNER ITERATION):

    HEAD CHANGE    HEAD CHANGE    HEAD CHANGE    HEAD CHANGE    HEAD CHANGE 
   LAYER,ROW,COL  LAYER,ROW,COL  LAYER,ROW,COL  LAYER,ROW,COL  LAYER,ROW,COL
 ---------------------------------------------------------------------------
  1  0.2192      0 -0.1227      0  0.7075E-01  0 -0.6052E-01  0  0.8235E-01
   (  5, 43,  5)  (  5, 35,  1)  (  5, 30,  2)  (  5, 41,  2)  (  5, 37,  1)
  0  0.4342E-01  0  0.5253E-01  0 -0.5736E-01  0 -0.3244E-01  0 -0.2546E-01
   (  5, 39,  1)  (  5, 40,  1)  (  5, 37,  1)  (  5, 37,  6)  (  5, 40,  1)
  0 -0.2086E-01  0 -0.1252E-01  0  0.1099E-01  0 -0.1359E-01  0  0.1182E-01
   (  5, 35,  9)  (  5, 28,  2)  (  5, 33,  3)  (  5, 31,  9)  (  5, 36,  8)
  0  0.6632E-02  0 -0.5587E-02  0 -0.4746E-02  0 -0.3991E-02  0 -0.3421E-02
   (  5, 34,  1)  (  5, 36,  4)  (  5, 15,  1)  (  5, 30, 10)  (  5, 36,  7)
  0  0.2349E-02  0 -0.2200E-02  0  0.1660E-02  0  0.1901E-02  0 -0.1579E-02
   (  5, 33,  7)  (  5, 32,  4)  (  5, 38,  2)  (  5, 13,  1)  (  5, 13,  1)
  0 -0.1001E-02  0  0.6956E-03  0 -0.6102E-03  0  0.4630E-03  0 -0.3137E-03
   (  5, 37,  1)  (  5, 40,  2)  (  5, 38,  1)  (  5, 35,  1)  (  5, 36,  3)
  1 -0.2210E-03  0  0.1508E-03  0 -0.1945E-03  0  0.2658E-03  0 -0.1710E-03
   (  5, 27,  2)  (  5, 26,  3)  (  5, 33,  3)  (  5, 37,  1)  (  5, 39,  4)
  0  0.1824E-03  0  0.1736E-03  0 -0.1286E-03  0  0.1418E-03  0 -0.7605E-04
   (  5, 41,  2)  (  5, 39,  5)  (  5, 37,  1)  (  5, 40,  1)  (  5, 37,  1)
  0  0.6735E-04  0  0.3869E-04  0 -0.3668E-04  0 -0.3201E-04  0  0.2410E-04
   (  5, 39,  2)  (  5, 30,  5)  (  5, 28,  2)  (  5, 32,  9)  (  5, 34,  9)
  0  0.2278E-04  0 -0.2294E-04  0 -0.1872E-04  0 -0.1359E-04  0  0.7928E-05
   (  5, 35,  3)  (  5, 39,  1)  (  5, 37,  4)  (  5, 39,  2)  (  5, 36,  9)
  0 -0.4420E-05  0  0.6261E-05  0  0.5487E-05  0 -0.4845E-05  0  0.3746E-05
   (  5, 35,  1)  (  5, 33,  8)  (  5, 38,  1)  (  5, 41,  5)  (  5, 37,  2)
  0 -0.3637E-05  0  0.1949E-05  0  0.1431E-05  0 -0.2051E-05  0 -0.1858E-05
   (  5, 40,  2)  (  5, 41,  4)  (  5, 36,  5)  (  5, 37,  1)  (  5, 43,  6)
  1 -0.6698E-06
   (  5, 30,  2)

 MAXIMUM RESIDUAL FOR EACH ITERATION (1 INDICATES THE FIRST INNER ITERATION):

    RESIDUAL       RESIDUAL       RESIDUAL       RESIDUAL       RESIDUAL    
   LAYER,ROW,COL  LAYER,ROW,COL  LAYER,ROW,COL  LAYER,ROW,COL  LAYER,ROW,COL
 ---------------------------------------------------------------------------
  1 -0.1072E-02  0 -0.8130E-03  0 -0.6837E-03  0 -0.6037E-03  0 -0.5061E-03
   (  4, 44,  2)  (  4, 44,  2)  (  4, 44,  2)  (  4, 35, 35)  (  4, 35, 35)
  0 -0.4293E-03  0 -0.3623E-03  0 -0.2879E-03  0 -0.2305E-03  0 -0.1760E-03
   (  3, 40, 27)  (  3, 40, 27)  (  3, 40, 27)  (  3, 40, 27)  (  3, 40, 27)
  0  0.1352E-03  0  0.1165E-03  0  0.1057E-03  0  0.8422E-04  0  0.6543E-04
   (  4, 43,  4)  (  4, 43,  4)  (  4, 43,  4)  (  3, 35, 35)  (  3, 35, 35)
  0  0.5591E-04  0  0.4814E-04  0  0.3798E-04  0  0.3115E-04  0  0.2494E-04
   (  3, 35, 35)  (  4, 43,  4)  (  4, 44,  2)  (  4, 44,  2)  (  4, 34, 35)
  0  0.2211E-04  0  0.2008E-04  0  0.1872E-04  0  0.1495E-04  0  0.1190E-04
   (  4, 34, 35)  (  4, 34, 35)  (  4, 34, 35)  (  4, 34, 35)  (  4, 34, 35)
  0  0.9304E-05  0  0.8253E-05  0  0.6411E-05  0  0.5559E-05  0  0.4432E-05
   (  4, 34, 35)  (  4, 34, 35)  (  4, 34, 35)  (  4, 34, 35)  (  4, 34, 35)
  1  0.4236E-05  0  0.4135E-05  0  0.3993E-05  0  0.3413E-05  0  0.2970E-05
   (  4, 34, 35)  (  4, 34, 35)  (  4, 34, 35)  (  4, 34, 35)  (  4, 34, 35)
  0  0.2381E-05  0  0.1956E-05  0  0.1623E-05  0  0.1163E-05  0  0.9182E-06
   (  4, 34, 35)  (  4, 34, 35)  (  4, 34, 35)  (  4, 34, 35)  (  4, 34, 35)
  0  0.7043E-06  0  0.5531E-06  0  0.4820E-06  0 -0.3974E-06  0 -0.3267E-06
   (  4, 34, 35)  (  4, 34, 35)  (  4, 34, 35)  (  4, 35, 35)  (  4, 35, 35)
  0 -0.2968E-06  0 -0.2277E-06  0 -0.1764E-06  0 -0.1281E-06  0 -0.9496E-07
   (  4, 35, 35)  (  4, 35, 35)  (  4, 35, 35)  (  4, 35, 35)  (  4, 35, 35)
  0 -0.8863E-07  0 -0.7043E-07  0 -0.6078E-07  0 -0.4417E-07  0 -0.3235E-07
   (  4, 35, 35)  (  4, 35, 35)  (  4, 35, 35)  (  4, 35, 35)  (  4, 35, 35)
  0 -0.2556E-07  0 -0.2135E-07  0 -0.1896E-07  0 -0.1548E-07  0 -0.1096E-07
   (  4, 35, 35)  (  4, 35, 35)  (  4, 35, 35)  (  4, 35, 35)  (  3, 36, 35)
  1 -0.1094E-07
   (  3, 36, 35)



 OUTPUT CONTROL FOR STRESS PERIOD   97   TIME STEP    1
    SAVE HEAD FOR ALL LAYERS
    SAVE DRAWDOWN FOR ALL LAYERS
    SAVE BUDGET
    PRINT BUDGET
 UBDSV1 SAVING "         STORAGE" ON UNIT   9 AT TIME STEP  1, STRESS PERIOD  97
 UBDSV2 SAVING "   CONSTANT HEAD" ON UNIT   9 AT TIME STEP  1, STRESS PERIOD  97
 UBDSV1 SAVING "FLOW RIGHT FACE " ON UNIT   9 AT TIME STEP  1, STRESS PERIOD  97
 UBDSV1 SAVING "FLOW FRONT FACE " ON UNIT   9 AT TIME STEP  1, STRESS PERIOD  97
 UBDSV1 SAVING "FLOW LOWER FACE " ON UNIT   9 AT TIME STEP  1, STRESS PERIOD  97
 UBDSV3 SAVING "        RECHARGE" ON UNIT   9 AT TIME STEP  1, STRESS PERIOD  97

 HEAD WILL BE SAVED ON UNIT   37 AT END OF TIME STEP    1, STRESS PERIOD   97

 DRAWDOWN WILL BE SAVED ON UNIT   38 AT END OF TIME STEP    1, STRESS PERIOD   97
1
  VOLUMETRIC BUDGET FOR ENTIRE MODEL AT END OF TIME STEP    1, STRESS PERIOD  97
  ------------------------------------------------------------------------------

     CUMULATIVE VOLUMES      L**3       RATES FOR THIS TIME STEP      L**3/T
     ------------------                 ------------------------

           IN:                                      IN:
           ---                                      ---
             STORAGE =       14747.6162               STORAGE =           0.0000
       CONSTANT HEAD =       24832.3086         CONSTANT HEAD =       1.8026E-03
            RECHARGE =        1182.4071              RECHARGE =       1.0213E-04

            TOTAL IN =       40762.3320              TOTAL IN =       1.9047E-03

          OUT:                                     OUT:
          ----                                     ----
             STORAGE =       11037.6631               STORAGE =       1.4689E-03
       CONSTANT HEAD =       29725.8574         CONSTANT HEAD =       4.3565E-04
            RECHARGE =           0.0000              RECHARGE =           0.0000

           TOTAL OUT =       40763.5195             TOTAL OUT =       1.9046E-03

            IN - OUT =          -1.1875              IN - OUT =       1.2328E-07

 PERCENT DISCREPANCY =          -0.00     PERCENT DISCREPANCY =           0.01






         TIME SUMMARY AT END OF TIME STEP    1 IN STRESS PERIOD   97
                    SECONDS     MINUTES      HOURS       DAYS        YEARS
                    -----------------------------------------------------------
   TIME STEP LENGTH  86400.      1440.0      24.000      1.0000     2.73785E-03
 STRESS PERIOD TIME  86400.      1440.0      24.000      1.0000     2.73785E-03
         TOTAL TIME 1.15776E+07 1.92960E+05  3216.0      134.00     0.36687    
1
1
                            STRESS PERIOD NO.   98, LENGTH =   86400.00    
                            -----------------------------------------------

                              NUMBER OF TIME STEPS =     1

                               MULTIPLIER FOR DELT =     1.000

                            INITIAL TIME STEP SIZE =   86400.00    

 REUSING RECH FROM LAST STRESS PERIOD

 CHD NO.   LAYER   ROW   COL    START HEAD        END HEAD         IFACE           
 ----------------------------------------------------------------------------------
      1      4      3      1       109.9           109.9           0.000    
      2      5      3      1       109.9           109.9           0.000    
      3      4      3      2       109.9           109.9           0.000    
      4      5      3      2       109.9           109.9           0.000    
      5      4      3      3       109.9           109.9           0.000    
      6      5      3      3       109.9           109.9           0.000    
      7      4      3      4       109.9           109.9           0.000    
      8      5      3      4       109.9           109.9           0.000    
      9      4      3      5       109.9           109.9           0.000    
     10      5      3      5       109.9           109.9           0.000    
     11      4      3      6       109.9           109.9           0.000    
     12      5      3      6       109.9           109.9           0.000    
     13      4      3      7       109.9           109.9           0.000    
     14      5      3      7       109.9           109.9           0.000    
     15      4      3      8       109.9           109.9           0.000    
     16      5      3      8       109.9           109.9           0.000    
     17      4      2      8       109.9           109.9           0.000    
     18      5      2      8       109.9           109.9           0.000    
     19      4      2      9       109.9           109.9           0.000    
     20      5      2      9       109.9           109.9           0.000    
     21      4      2     10       109.9           109.9           0.000    
     22      5      2     10       109.9           109.9           0.000    
     23      4      2     11       109.9           109.9           0.000    
     24      5      2     11       109.9           109.9           0.000    
     25      4      2     12       109.9           109.9           0.000    
     26      5      2     12       109.9           109.9           0.000    
     27      4      2     13       109.9           109.9           0.000    
     28      5      2     13       109.9           109.9           0.000    
     29      4      2     14       109.9           109.9           0.000    
     30      5      2     14       109.9           109.9           0.000    
     31      4      2     15       109.9           109.9           0.000    
     32      5      2     15       109.9           109.9           0.000    
     33      4      2     16       109.9           109.9           0.000    
     34      5      2     16       109.9           109.9           0.000    
     35      4      2     17       109.9           109.9           0.000    
     36      5      2     17       109.9           109.9           0.000    
     37      4      2     18       109.9           109.9           0.000    
     38      5      2     18       109.9           109.9           0.000    
     39      4      2     19       109.9           109.9           0.000    
     40      5      2     19       109.9           109.9           0.000    
     41      4      2     20       109.9           109.9           0.000    
     42      5      2     20       109.9           109.9           0.000    
     43      4      2     21       109.9           109.9           0.000    
     44      5      2     21       109.9           109.9           0.000    
     45      4      2     22       109.9           109.9           0.000    
     46      5      2     22       109.9           109.9           0.000    
     47      4      2     23       109.9           109.9           0.000    
     48      5      2     23       109.9           109.9           0.000    
     49      4      2     24       109.9           109.9           0.000    
     50      5      2     24       109.9           109.9           0.000    
     51      4      2     25       109.9           109.9           0.000    
     52      5      2     25       109.9           109.9           0.000    
     53      4      2     26       109.9           109.9           0.000    
     54      5      2     26       109.9           109.9           0.000    
     55      4      1     26       109.9           109.9           0.000    
     56      5      1     26       109.9           109.9           0.000    
     57      4      1     27       109.9           109.9           0.000    
     58      5      1     27       109.9           109.9           0.000    
     59      4      1     28       109.9           109.9           0.000    
     60      5      1     28       109.9           109.9           0.000    
     61      4      1     29       109.9           109.9           0.000    
     62      5      1     29       109.9           109.9           0.000    
     63      4      1     30       109.9           109.9           0.000    
     64      5      1     30       109.9           109.9           0.000    
     65      4      1     31       109.9           109.9           0.000    
     66      5      1     31       109.9           109.9           0.000    
     67      4      1     32       109.9           109.9           0.000    
     68      5      1     32       109.9           109.9           0.000    
     69      4      1     33       109.9           109.9           0.000    
     70      5      1     33       109.9           109.9           0.000    
     71      4      1     34       109.9           109.9           0.000    
     72      5      1     34       109.9           109.9           0.000    
     73      4      1     35       109.9           109.9           0.000    
     74      5      1     35       109.9           109.9           0.000    
     75      4     36     35       109.8           109.9           0.000    
     76      5     36     35       109.8           109.9           0.000    
     77      4     35     34       109.8           109.9           0.000    
     78      5     35     34       109.8           109.9           0.000    
     79      4     36     34       109.8           109.9           0.000    
     80      5     36     34       109.8           109.9           0.000    
     81      4     36     33       109.8           109.9           0.000    
     82      5     36     33       109.8           109.9           0.000    
     83      4     36     32       109.8           109.9           0.000    
     84      5     36     32       109.8           109.9           0.000    
     85      4     37     32       109.8           109.9           0.000    
     86      5     37     32       109.8           109.9           0.000    
     87      4     37     31       109.8           109.9           0.000    
     88      5     37     31       109.8           109.9           0.000    
     89      4     38     31       109.8           109.9           0.000    
     90      5     38     31       109.8           109.9           0.000    
     91      4     38     30       109.8           109.9           0.000    
     92      5     38     30       109.8           109.9           0.000    
     93      4     39     30       109.8           109.9           0.000    
     94      5     39     30       109.8           109.9           0.000    
     95      4     39     29       109.8           109.9           0.000    
     96      5     39     29       109.8           109.9           0.000    
     97      4     40     29       109.8           109.9           0.000    
     98      5     40     29       109.8           109.9           0.000    
     99      4     40     28       109.8           109.9           0.000    
    100      5     40     28       109.8           109.9           0.000    
    101      4     40     27       109.8           109.9           0.000    
    102      5     40     27       109.8           109.9           0.000    
    103      4     41     27       109.8           109.9           0.000    
    104      5     41     27       109.8           109.9           0.000    
    105      4     41     26       109.8           109.9           0.000    
    106      5     41     26       109.8           109.9           0.000    
    107      4     41     25       109.8           109.9           0.000    
    108      5     41     25       109.8           109.9           0.000    
    109      4     41     24       109.7           109.9           0.000    
    110      5     41     24       109.7           109.9           0.000    
    111      4     41     23       109.7           109.9           0.000    
    112      5     41     23       109.7           109.9           0.000    
    113      4     41     22       109.7           109.9           0.000    
    114      5     41     22       109.7           109.9           0.000    
    115      4     42     22       109.7           109.9           0.000    
    116      5     42     22       109.7           109.9           0.000    
    117      4     42     21       109.7           109.9           0.000    
    118      5     42     21       109.7           109.9           0.000    
    119      4     42     20       109.7           109.9           0.000    
    120      5     42     20       109.7           109.9           0.000    
    121      4     42     19       109.7           109.9           0.000    
    122      5     42     19       109.7           109.9           0.000    
    123      4     43     18       109.7           109.9           0.000    
    124      5     43     18       109.7           109.9           0.000    
    125      4     42     18       109.7           109.9           0.000    
    126      5     42     18       109.7           109.9           0.000    
    127      4     42     17       109.7           109.9           0.000    
    128      5     42     17       109.7           109.9           0.000    
    129      4     42     16       109.7           109.9           0.000    
    130      5     42     16       109.7           109.9           0.000    
    131      4     42     15       109.7           109.9           0.000    
    132      5     42     15       109.7           109.9           0.000    
    133      4     43     15       109.7           109.9           0.000    
    134      5     43     15       109.7           109.9           0.000    
    135      4     43     14       109.7           109.9           0.000    
    136      5     43     14       109.7           109.9           0.000    
    137      4     43     13       109.7           109.9           0.000    
    138      5     43     13       109.7           109.9           0.000    
    139      4     43     12       109.7           109.9           0.000    
    140      5     43     12       109.7           109.9           0.000    
    141      4     43     11       109.7           109.9           0.000    
    142      5     43     11       109.7           109.9           0.000    
    143      4     43     10       109.7           109.9           0.000    
    144      5     43     10       109.7           109.9           0.000    
    145      4     44     10       109.7           109.9           0.000    
    146      5     44     10       109.7           109.9           0.000    
    147      4     44      9       109.7           109.9           0.000    
    148      5     44      9       109.7           109.9           0.000    
    149      4     44      8       109.7           109.9           0.000    
    150      5     44      8       109.7           109.9           0.000    
    151      4     44      7       109.7           109.9           0.000    
    152      5     44      7       109.7           109.9           0.000    
    153      4     44      6       109.7           109.9           0.000    
    154      5     44      6       109.7           109.9           0.000    
    155      4     44      5       109.7           109.9           0.000    
    156      5     44      5       109.7           109.9           0.000    
    157      4     44      4       109.7           109.9           0.000    
    158      5     44      4       109.7           109.9           0.000    
    159      4     44      3       109.7           109.9           0.000    
    160      5     44      3       109.7           109.9           0.000    
    161      4     45      3       109.7           109.9           0.000    
    162      5     45      3       109.7           109.9           0.000    
    163      4     45      2       109.7           109.9           0.000    
    164      5     45      2       109.7           109.9           0.000    
    165      4     45      1       109.7           109.9           0.000    
    166      5     45      1       109.7           109.9           0.000    


    166 TIME-VARIANT SPECIFIED-HEAD CELLS

 SOLVING FOR HEAD 


     4 CALLS TO PCG ROUTINE FOR TIME STEP   1 IN STRESS PERIOD   98
    70 TOTAL ITERATIONS

 MAXIMUM HEAD CHANGE FOR EACH ITERATION (1 INDICATES THE FIRST INNER ITERATION):

    HEAD CHANGE    HEAD CHANGE    HEAD CHANGE    HEAD CHANGE    HEAD CHANGE 
   LAYER,ROW,COL  LAYER,ROW,COL  LAYER,ROW,COL  LAYER,ROW,COL  LAYER,ROW,COL
 ---------------------------------------------------------------------------
  1  0.4749      0 -0.2608      0  0.1488      0 -0.1310      0  0.1674    
   (  5, 43,  5)  (  5, 35,  1)  (  5, 30,  2)  (  5, 41,  2)  (  5, 37,  1)
  0  0.9681E-01  0  0.1110      0 -0.1203      0 -0.6854E-01  0 -0.5363E-01
   (  5, 39,  1)  (  5, 40,  1)  (  5, 37,  1)  (  5, 37,  6)  (  5, 40,  1)
  0 -0.4794E-01  0  0.4278E-01  0 -0.2188E-01  0 -0.2796E-01  0  0.2102E-01
   (  5, 35,  9)  (  5, 33,  9)  (  5, 29,  3)  (  5, 30,  9)  (  5, 36,  9)
  0  0.1321E-01  0 -0.1223E-01  0 -0.1012E-01  0 -0.8061E-02  0 -0.7403E-02
   (  5, 35,  2)  (  5, 34,  9)  (  5, 15,  1)  (  5, 30, 10)  (  5, 36,  7)
  0  0.5249E-02  0 -0.4350E-02  0  0.3557E-02  0  0.3717E-02  0 -0.3287E-02
   (  5, 33,  7)  (  5, 32,  4)  (  5, 38,  2)  (  5, 13,  1)  (  5, 13,  1)
  0  0.2207E-02  0 -0.2139E-02  0  0.9255E-03  0 -0.1014E-02  0  0.8382E-03
   (  5, 39,  2)  (  5, 37,  1)  (  5, 33,  1)  (  5, 12,  1)  (  5, 36,  1)
  1 -0.3692E-03  0  0.5730E-03  0  0.6501E-03  0  0.4651E-03  0  0.2884E-03
   (  5, 28,  1)  (  5, 33,  6)  (  5, 35,  3)  (  5, 27,  6)  (  5, 32,  2)
  0 -0.4195E-03  0  0.3766E-03  0  0.3338E-03  0 -0.2155E-03  0  0.1458E-03
   (  5, 37,  1)  (  5, 36,  2)  (  5, 32,  8)  (  5, 37,  1)  (  5, 39,  1)
  0  0.1363E-03  0 -0.9515E-04  0  0.1147E-03  0 -0.7170E-04  0  0.6500E-04
   (  5, 38,  4)  (  5, 27,  2)  (  5, 39,  1)  (  5, 40,  4)  (  5, 37,  1)
  0 -0.5460E-04  0 -0.5339E-04  0  0.3047E-04  0  0.4319E-04  0 -0.1872E-04
   (  5, 39,  1)  (  5, 37,  4)  (  5, 35,  1)  (  5, 38,  8)  (  5, 32,  5)
  0  0.2143E-04  0 -0.2040E-04  0  0.1288E-04  0 -0.1147E-04  0 -0.8511E-05
   (  5, 32,  1)  (  5, 36,  1)  (  5, 38,  1)  (  5, 41,  5)  (  5, 40,  6)
  0 -0.1016E-04  0  0.5627E-05  0  0.4526E-05  0 -0.2140E-05  0  0.2259E-05
   (  5, 40,  2)  (  5, 42,  2)  (  5, 31,  8)  (  5, 27,  1)  (  5, 33,  5)
  1 -0.2271E-05  0  0.1660E-05  0 -0.1436E-05  0 -0.2254E-05  0  0.2465E-05
   (  5, 34,  3)  (  5, 38,  2)  (  5, 27,  2)  (  5, 39,  1)  (  5, 32,  8)
  0 -0.1891E-05  0  0.1173E-05  0 -0.1352E-05  0 -0.8602E-06  1  0.6312E-06
   (  5, 34,  1)  (  5, 38,  3)  (  5, 39,  1)  (  5, 37,  5)  (  5, 37,  6)

 MAXIMUM RESIDUAL FOR EACH ITERATION (1 INDICATES THE FIRST INNER ITERATION):

    RESIDUAL       RESIDUAL       RESIDUAL       RESIDUAL       RESIDUAL    
   LAYER,ROW,COL  LAYER,ROW,COL  LAYER,ROW,COL  LAYER,ROW,COL  LAYER,ROW,COL
 ---------------------------------------------------------------------------
  1 -0.2108E-02  0 -0.1575E-02  0 -0.1355E-02  0 -0.1221E-02  0 -0.1026E-02
   (  4, 44,  2)  (  4, 44,  2)  (  4, 35, 35)  (  4, 35, 35)  (  4, 35, 35)
  0 -0.8617E-03  0 -0.7206E-03  0 -0.5687E-03  0 -0.4505E-03  0  0.3486E-03
   (  4, 35, 35)  (  3, 40, 27)  (  3, 40, 27)  (  3, 40, 27)  (  4, 43,  4)
  0  0.2849E-03  0  0.2408E-03  0  0.2220E-03  0  0.1759E-03  0  0.1399E-03
   (  4, 43,  4)  (  4, 43,  4)  (  4, 43,  4)  (  4, 43,  4)  (  4, 43,  4)
  0  0.1273E-03  0  0.1040E-03  0  0.8292E-04  0  0.6739E-04  0  0.5097E-04
   (  4, 43,  4)  (  4, 44,  2)  (  4, 44,  2)  (  4, 44,  2)  (  4, 44,  2)
  0  0.4268E-04  0  0.3959E-04  0  0.3681E-04  0  0.2972E-04  0  0.2364E-04
   (  4, 34, 35)  (  4, 34, 35)  (  4, 34, 35)  (  4, 34, 35)  (  4, 34, 35)
  0  0.1984E-04  0  0.1729E-04  0  0.1622E-04  0  0.1212E-04  0  0.8570E-05
   (  4, 34, 35)  (  4, 34, 35)  (  4, 34, 35)  (  4, 34, 35)  (  4, 34, 35)
  1  0.8518E-05  0  0.7757E-05  0  0.5949E-05  0  0.4509E-05  0  0.4074E-05
   (  4, 34, 35)  (  4, 34, 35)  (  4, 34, 35)  (  4, 34, 35)  (  4, 34, 35)
  0  0.3481E-05  0  0.2966E-05  0  0.2542E-05  0  0.2170E-05  0  0.1847E-05
   (  4, 34, 35)  (  4, 34, 35)  (  4, 34, 35)  (  4, 34, 35)  (  4, 34, 35)
  0  0.1587E-05  0  0.1444E-05  0  0.1096E-05  0  0.8861E-06  0  0.6463E-06
   (  4, 34, 35)  (  4, 34, 35)  (  4, 34, 35)  (  4, 34, 35)  (  4, 34, 35)
  0 -0.4671E-06  0 -0.3903E-06  0 -0.3442E-06  0 -0.2617E-06  0 -0.2369E-06
   (  4, 35, 35)  (  4, 35, 35)  (  4, 35, 35)  (  4, 35, 35)  (  4, 35, 35)
  0 -0.1913E-06  0 -0.1482E-06  0 -0.1316E-06  0 -0.1026E-06  0 -0.7863E-07
   (  4, 35, 35)  (  4, 35, 35)  (  4, 35, 35)  (  4, 35, 35)  (  4, 35, 35)
  0 -0.5952E-07  0 -0.4545E-07  0 -0.2890E-07  0 -0.2669E-07  0 -0.2313E-07
   (  4, 35, 35)  (  4, 35, 35)  (  4, 35, 35)  (  4, 35, 35)  (  3, 36, 35)
  1 -0.2299E-07  0 -0.2240E-07  0 -0.2142E-07  0 -0.1867E-07  0 -0.1404E-07
   (  3, 36, 35)  (  3, 36, 35)  (  3, 36, 35)  (  3, 36, 35)  (  3, 36, 35)
  0 -0.1104E-07  0 -0.1001E-07  0 -0.8189E-08  0 -0.6723E-08  1 -0.6509E-08
   (  3, 36, 35)  (  4, 35, 35)  (  4, 35, 35)  (  4, 35, 35)  (  4, 35, 35)



 OUTPUT CONTROL FOR STRESS PERIOD   98   TIME STEP    1
    SAVE HEAD FOR ALL LAYERS
    SAVE DRAWDOWN FOR ALL LAYERS
    SAVE BUDGET
    PRINT BUDGET
 UBDSV1 SAVING "         STORAGE" ON UNIT   9 AT TIME STEP  1, STRESS PERIOD  98
 UBDSV2 SAVING "   CONSTANT HEAD" ON UNIT   9 AT TIME STEP  1, STRESS PERIOD  98
 UBDSV1 SAVING "FLOW RIGHT FACE " ON UNIT   9 AT TIME STEP  1, STRESS PERIOD  98
 UBDSV1 SAVING "FLOW FRONT FACE " ON UNIT   9 AT TIME STEP  1, STRESS PERIOD  98
 UBDSV1 SAVING "FLOW LOWER FACE " ON UNIT   9 AT TIME STEP  1, STRESS PERIOD  98
 UBDSV3 SAVING "        RECHARGE" ON UNIT   9 AT TIME STEP  1, STRESS PERIOD  98

 HEAD WILL BE SAVED ON UNIT   37 AT END OF TIME STEP    1, STRESS PERIOD   98

 DRAWDOWN WILL BE SAVED ON UNIT   38 AT END OF TIME STEP    1, STRESS PERIOD   98
1
  VOLUMETRIC BUDGET FOR ENTIRE MODEL AT END OF TIME STEP    1, STRESS PERIOD  98
  ------------------------------------------------------------------------------

     CUMULATIVE VOLUMES      L**3       RATES FOR THIS TIME STEP      L**3/T
     ------------------                 ------------------------

           IN:                                      IN:
           ---                                      ---
             STORAGE =       14747.6162               STORAGE =           0.0000
       CONSTANT HEAD =       25158.0234         CONSTANT HEAD =       3.7699E-03
            RECHARGE =        1191.2311              RECHARGE =       1.0213E-04

            TOTAL IN =       41096.8711              TOTAL IN =       3.8720E-03

          OUT:                                     OUT:
          ----                                     ----
             STORAGE =       11370.3262               STORAGE =       3.8503E-03
       CONSTANT HEAD =       29727.7363         CONSTANT HEAD =       2.1736E-05
            RECHARGE =           0.0000              RECHARGE =           0.0000

           TOTAL OUT =       41098.0625             TOTAL OUT =       3.8720E-03

            IN - OUT =          -1.1914              IN - OUT =      -2.2585E-08

 PERCENT DISCREPANCY =          -0.00     PERCENT DISCREPANCY =          -0.00






         TIME SUMMARY AT END OF TIME STEP    1 IN STRESS PERIOD   98
                    SECONDS     MINUTES      HOURS       DAYS        YEARS
                    -----------------------------------------------------------
   TIME STEP LENGTH  86400.      1440.0      24.000      1.0000     2.73785E-03
 STRESS PERIOD TIME  86400.      1440.0      24.000      1.0000     2.73785E-03
         TOTAL TIME 1.16640E+07 1.94400E+05  3240.0      135.00     0.36961    
1
1
                            STRESS PERIOD NO.   99, LENGTH =   86400.00    
                            -----------------------------------------------

                              NUMBER OF TIME STEPS =     1

                               MULTIPLIER FOR DELT =     1.000

                            INITIAL TIME STEP SIZE =   86400.00    

 REUSING RECH FROM LAST STRESS PERIOD

 CHD NO.   LAYER   ROW   COL    START HEAD        END HEAD         IFACE           
 ----------------------------------------------------------------------------------
      1      4      3      1       109.9           110.0           0.000    
      2      5      3      1       109.9           110.0           0.000    
      3      4      3      2       109.9           110.0           0.000    
      4      5      3      2       109.9           110.0           0.000    
      5      4      3      3       109.9           110.0           0.000    
      6      5      3      3       109.9           110.0           0.000    
      7      4      3      4       109.9           110.0           0.000    
      8      5      3      4       109.9           110.0           0.000    
      9      4      3      5       109.9           110.0           0.000    
     10      5      3      5       109.9           110.0           0.000    
     11      4      3      6       109.9           110.0           0.000    
     12      5      3      6       109.9           110.0           0.000    
     13      4      3      7       109.9           110.0           0.000    
     14      5      3      7       109.9           110.0           0.000    
     15      4      3      8       109.9           110.0           0.000    
     16      5      3      8       109.9           110.0           0.000    
     17      4      2      8       109.9           110.0           0.000    
     18      5      2      8       109.9           110.0           0.000    
     19      4      2      9       109.9           110.0           0.000    
     20      5      2      9       109.9           110.0           0.000    
     21      4      2     10       109.9           110.0           0.000    
     22      5      2     10       109.9           110.0           0.000    
     23      4      2     11       109.9           110.0           0.000    
     24      5      2     11       109.9           110.0           0.000    
     25      4      2     12       109.9           110.0           0.000    
     26      5      2     12       109.9           110.0           0.000    
     27      4      2     13       109.9           110.0           0.000    
     28      5      2     13       109.9           110.0           0.000    
     29      4      2     14       109.9           110.0           0.000    
     30      5      2     14       109.9           110.0           0.000    
     31      4      2     15       109.9           110.0           0.000    
     32      5      2     15       109.9           110.0           0.000    
     33      4      2     16       109.9           110.0           0.000    
     34      5      2     16       109.9           110.0           0.000    
     35      4      2     17       109.9           110.0           0.000    
     36      5      2     17       109.9           110.0           0.000    
     37      4      2     18       109.9           110.0           0.000    
     38      5      2     18       109.9           110.0           0.000    
     39      4      2     19       109.9           110.0           0.000    
     40      5      2     19       109.9           110.0           0.000    
     41      4      2     20       109.9           110.0           0.000    
     42      5      2     20       109.9           110.0           0.000    
     43      4      2     21       109.9           110.0           0.000    
     44      5      2     21       109.9           110.0           0.000    
     45      4      2     22       109.9           110.0           0.000    
     46      5      2     22       109.9           110.0           0.000    
     47      4      2     23       109.9           110.0           0.000    
     48      5      2     23       109.9           110.0           0.000    
     49      4      2     24       109.9           110.0           0.000    
     50      5      2     24       109.9           110.0           0.000    
     51      4      2     25       109.9           110.0           0.000    
     52      5      2     25       109.9           110.0           0.000    
     53      4      2     26       109.9           110.0           0.000    
     54      5      2     26       109.9           110.0           0.000    
     55      4      1     26       109.9           110.0           0.000    
     56      5      1     26       109.9           110.0           0.000    
     57      4      1     27       109.9           110.0           0.000    
     58      5      1     27       109.9           110.0           0.000    
     59      4      1     28       109.9           110.0           0.000    
     60      5      1     28       109.9           110.0           0.000    
     61      4      1     29       109.9           110.0           0.000    
     62      5      1     29       109.9           110.0           0.000    
     63      4      1     30       109.9           110.0           0.000    
     64      5      1     30       109.9           110.0           0.000    
     65      4      1     31       109.9           110.0           0.000    
     66      5      1     31       109.9           110.0           0.000    
     67      4      1     32       109.9           110.0           0.000    
     68      5      1     32       109.9           110.0           0.000    
     69      4      1     33       109.9           110.0           0.000    
     70      5      1     33       109.9           110.0           0.000    
     71      4      1     34       109.9           110.0           0.000    
     72      5      1     34       109.9           110.0           0.000    
     73      4      1     35       109.9           110.0           0.000    
     74      5      1     35       109.9           110.0           0.000    
     75      4     36     35       109.9           109.9           0.000    
     76      5     36     35       109.9           109.9           0.000    
     77      4     35     34       109.9           109.9           0.000    
     78      5     35     34       109.9           109.9           0.000    
     79      4     36     34       109.9           109.9           0.000    
     80      5     36     34       109.9           109.9           0.000    
     81      4     36     33       109.9           109.9           0.000    
     82      5     36     33       109.9           109.9           0.000    
     83      4     36     32       109.9           109.9           0.000    
     84      5     36     32       109.9           109.9           0.000    
     85      4     37     32       109.9           109.9           0.000    
     86      5     37     32       109.9           109.9           0.000    
     87      4     37     31       109.9           109.9           0.000    
     88      5     37     31       109.9           109.9           0.000    
     89      4     38     31       109.9           109.9           0.000    
     90      5     38     31       109.9           109.9           0.000    
     91      4     38     30       109.9           109.9           0.000    
     92      5     38     30       109.9           109.9           0.000    
     93      4     39     30       109.9           109.9           0.000    
     94      5     39     30       109.9           109.9           0.000    
     95      4     39     29       109.9           109.9           0.000    
     96      5     39     29       109.9           109.9           0.000    
     97      4     40     29       109.9           109.9           0.000    
     98      5     40     29       109.9           109.9           0.000    
     99      4     40     28       109.9           109.9           0.000    
    100      5     40     28       109.9           109.9           0.000    
    101      4     40     27       109.9           109.9           0.000    
    102      5     40     27       109.9           109.9           0.000    
    103      4     41     27       109.9           109.9           0.000    
    104      5     41     27       109.9           109.9           0.000    
    105      4     41     26       109.9           109.9           0.000    
    106      5     41     26       109.9           109.9           0.000    
    107      4     41     25       109.9           109.9           0.000    
    108      5     41     25       109.9           109.9           0.000    
    109      4     41     24       109.9           109.9           0.000    
    110      5     41     24       109.9           109.9           0.000    
    111      4     41     23       109.9           109.9           0.000    
    112      5     41     23       109.9           109.9           0.000    
    113      4     41     22       109.9           109.9           0.000    
    114      5     41     22       109.9           109.9           0.000    
    115      4     42     22       109.9           109.9           0.000    
    116      5     42     22       109.9           109.9           0.000    
    117      4     42     21       109.9           109.9           0.000    
    118      5     42     21       109.9           109.9           0.000    
    119      4     42     20       109.9           109.9           0.000    
    120      5     42     20       109.9           109.9           0.000    
    121      4     42     19       109.9           109.9           0.000    
    122      5     42     19       109.9           109.9           0.000    
    123      4     43     18       109.9           109.9           0.000    
    124      5     43     18       109.9           109.9           0.000    
    125      4     42     18       109.9           109.9           0.000    
    126      5     42     18       109.9           109.9           0.000    
    127      4     42     17       109.9           109.9           0.000    
    128      5     42     17       109.9           109.9           0.000    
    129      4     42     16       109.9           109.9           0.000    
    130      5     42     16       109.9           109.9           0.000    
    131      4     42     15       109.9           109.9           0.000    
    132      5     42     15       109.9           109.9           0.000    
    133      4     43     15       109.9           109.9           0.000    
    134      5     43     15       109.9           109.9           0.000    
    135      4     43     14       109.9           109.9           0.000    
    136      5     43     14       109.9           109.9           0.000    
    137      4     43     13       109.9           109.9           0.000    
    138      5     43     13       109.9           109.9           0.000    
    139      4     43     12       109.9           109.9           0.000    
    140      5     43     12       109.9           109.9           0.000    
    141      4     43     11       109.9           109.9           0.000    
    142      5     43     11       109.9           109.9           0.000    
    143      4     43     10       109.9           109.9           0.000    
    144      5     43     10       109.9           109.9           0.000    
    145      4     44     10       109.9           109.9           0.000    
    146      5     44     10       109.9           109.9           0.000    
    147      4     44      9       109.9           109.9           0.000    
    148      5     44      9       109.9           109.9           0.000    
    149      4     44      8       109.9           109.9           0.000    
    150      5     44      8       109.9           109.9           0.000    
    151      4     44      7       109.9           109.9           0.000    
    152      5     44      7       109.9           109.9           0.000    
    153      4     44      6       109.9           109.9           0.000    
    154      5     44      6       109.9           109.9           0.000    
    155      4     44      5       109.9           109.9           0.000    
    156      5     44      5       109.9           109.9           0.000    
    157      4     44      4       109.9           109.9           0.000    
    158      5     44      4       109.9           109.9           0.000    
    159      4     44      3       109.9           109.9           0.000    
    160      5     44      3       109.9           109.9           0.000    
    161      4     45      3       109.9           109.9           0.000    
    162      5     45      3       109.9           109.9           0.000    
    163      4     45      2       109.9           109.9           0.000    
    164      5     45      2       109.9           109.9           0.000    
    165      4     45      1       109.9           109.9           0.000    
    166      5     45      1       109.9           109.9           0.000    


    166 TIME-VARIANT SPECIFIED-HEAD CELLS

 SOLVING FOR HEAD 


     3 CALLS TO PCG ROUTINE FOR TIME STEP   1 IN STRESS PERIOD   99
    58 TOTAL ITERATIONS

 MAXIMUM HEAD CHANGE FOR EACH ITERATION (1 INDICATES THE FIRST INNER ITERATION):

    HEAD CHANGE    HEAD CHANGE    HEAD CHANGE    HEAD CHANGE    HEAD CHANGE 
   LAYER,ROW,COL  LAYER,ROW,COL  LAYER,ROW,COL  LAYER,ROW,COL  LAYER,ROW,COL
 ---------------------------------------------------------------------------
  1  0.7374E-01  0 -0.3653E-01  0 -0.3882E-01  0  0.3411E-01  0  0.2482E-01
   (  5, 43,  5)  (  5, 33,  1)  (  5, 39,  2)  (  5, 35,  2)  (  5, 37,  1)
  0  0.2634E-01  0  0.1804E-01  0 -0.1415E-01  0 -0.1257E-01  0  0.7349E-02
   (  5, 39,  1)  (  5, 36,  6)  (  5, 33,  6)  (  5, 37,  6)  (  5, 39, 10)
  0  0.8325E-02  0  0.9891E-02  0  0.4583E-02  0 -0.3602E-02  0 -0.3068E-02
   (  5, 38,  1)  (  5, 32,  9)  (  5, 34,  8)  (  5, 33,  4)  (  5, 20,  1)
  0 -0.2398E-02  0  0.2385E-02  0 -0.2069E-02  0 -0.1316E-02  0 -0.1442E-02
   (  5, 36,  4)  (  5, 34,  1)  (  5, 15,  1)  (  5, 30,  1)  (  5, 38,  4)
  0  0.9674E-03  0 -0.7830E-03  0  0.7179E-03  0 -0.5162E-03  0 -0.5859E-03
   (  5, 37,  1)  (  5, 27,  9)  (  5, 29,  1)  (  5, 34,  4)  (  5, 13,  1)
  0  0.5325E-03  0 -0.2496E-03  0  0.2130E-03  0 -0.2103E-03  0  0.1531E-03
   (  5, 12,  1)  (  5, 34,  3)  (  5, 35,  1)  (  5, 38,  2)  (  5, 41,  2)
  1 -0.9523E-04  0  0.1026E-03  0 -0.1091E-03  0  0.7328E-04  0  0.6667E-04
   (  5, 40,  1)  (  5, 37,  1)  (  5, 32,  3)  (  5, 27,  4)  (  5, 35,  3)
  0 -0.6835E-04  0  0.7073E-04  0 -0.5772E-04  0  0.4726E-04  0 -0.3841E-04
   (  5, 34,  1)  (  5, 37,  2)  (  5, 41,  1)  (  5, 39,  1)  (  5, 33,  6)
  0 -0.2439E-04  0 -0.2259E-04  0  0.1030E-04  0 -0.1678E-04  0  0.1036E-04
   (  5, 35,  3)  (  5, 41,  2)  (  5, 30,  1)  (  5, 32,  8)  (  5, 30,  9)
  0  0.1028E-04  0 -0.8975E-05  0  0.8480E-05  0 -0.5582E-05  0 -0.3114E-05
   (  5, 38,  5)  (  5, 33,  1)  (  5, 33,  4)  (  5, 34,  8)  (  5, 16,  1)
  0 -0.2969E-05  0  0.2800E-05  0 -0.2823E-05  0  0.2536E-05  0 -0.1721E-05
   (  5, 33,  5)  (  5, 29,  1)  (  5, 36,  1)  (  5, 39,  1)  (  5, 40,  1)
  0  0.1082E-05  0 -0.8824E-06  1 -0.5423E-06
   (  5, 37,  2)  (  5, 39,  2)  (  5, 33,  1)

 MAXIMUM RESIDUAL FOR EACH ITERATION (1 INDICATES THE FIRST INNER ITERATION):

    RESIDUAL       RESIDUAL       RESIDUAL       RESIDUAL       RESIDUAL    
   LAYER,ROW,COL  LAYER,ROW,COL  LAYER,ROW,COL  LAYER,ROW,COL  LAYER,ROW,COL
 ---------------------------------------------------------------------------
  1 -0.2476E-03  0 -0.2332E-03  0 -0.2155E-03  0 -0.1864E-03  0 -0.1511E-03
   (  4, 35, 35)  (  4, 35, 35)  (  4, 35, 35)  (  4, 35, 35)  (  4, 35, 35)
  0 -0.1141E-03  0  0.1032E-03  0  0.9160E-04  0  0.7245E-04  0  0.5811E-04
   (  4, 35, 35)  (  4, 34, 35)  (  4, 34, 35)  (  4, 34, 35)  (  3, 35, 35)
  0  0.4981E-04  0  0.4064E-04  0  0.3416E-04  0  0.3093E-04  0  0.2410E-04
   (  3, 35, 35)  (  3, 35, 35)  (  4, 43,  4)  (  4, 43,  4)  (  4, 43,  4)
  0  0.2099E-04  0  0.1874E-04  0  0.1548E-04  0  0.1261E-04  0  0.1054E-04
   (  4, 44,  2)  (  4, 44,  2)  (  4, 44,  2)  (  4, 44,  2)  (  4, 44,  2)
  0  0.9237E-05  0  0.7142E-05  0  0.5961E-05  0  0.5031E-05  0  0.3244E-05
   (  4, 44,  2)  (  4, 44,  2)  (  4, 44,  2)  (  4, 44,  2)  (  4, 44,  2)
  0  0.2238E-05  0  0.1725E-05  0  0.1407E-05  0  0.1215E-05  0 -0.8825E-06
   (  4, 44,  2)  (  4, 44,  2)  (  4, 34, 35)  (  4, 34, 35)  (  4, 35, 35)
  1 -0.8086E-06  0 -0.7433E-06  0 -0.6810E-06  0 -0.6192E-06  0 -0.5660E-06
   (  4, 35, 35)  (  4, 35, 35)  (  4, 35, 35)  (  4, 35, 35)  (  4, 35, 35)
  0 -0.4474E-06  0 -0.3992E-06  0  0.2924E-06  0  0.2400E-06  0  0.1900E-06
   (  4, 35, 35)  (  4, 35, 35)  (  4, 44,  2)  (  4, 44,  2)  (  4, 44,  2)
  0 -0.1481E-06  0 -0.1227E-06  0 -0.1179E-06  0 -0.9719E-07  0 -0.7813E-07
   (  3,  3,  1)  (  3,  3,  1)  (  3,  3,  1)  (  3,  3,  1)  (  3,  3,  1)
  0 -0.6782E-07  0 -0.5882E-07  0 -0.4046E-07  0 -0.2640E-07  0 -0.1899E-07
   (  3,  3,  1)  (  3,  3,  1)  (  3,  3,  1)  (  3,  3,  1)  (  3,  3,  1)
  0 -0.1685E-07  0 -0.1470E-07  0 -0.1251E-07  0 -0.9536E-08  0 -0.7209E-08
   (  3,  3,  1)  (  3,  3,  1)  (  3,  3,  1)  (  3,  3,  1)  (  3,  3,  1)
  0 -0.6141E-08  0 -0.4712E-08  1 -0.4671E-08
   (  3,  3,  1)  (  3,  3,  1)  (  3,  3,  1)



 OUTPUT CONTROL FOR STRESS PERIOD   99   TIME STEP    1
    SAVE HEAD FOR ALL LAYERS
    SAVE DRAWDOWN FOR ALL LAYERS
    SAVE BUDGET
    PRINT BUDGET
 UBDSV1 SAVING "         STORAGE" ON UNIT   9 AT TIME STEP  1, STRESS PERIOD  99
 UBDSV2 SAVING "   CONSTANT HEAD" ON UNIT   9 AT TIME STEP  1, STRESS PERIOD  99
 UBDSV1 SAVING "FLOW RIGHT FACE " ON UNIT   9 AT TIME STEP  1, STRESS PERIOD  99
 UBDSV1 SAVING "FLOW FRONT FACE " ON UNIT   9 AT TIME STEP  1, STRESS PERIOD  99
 UBDSV1 SAVING "FLOW LOWER FACE " ON UNIT   9 AT TIME STEP  1, STRESS PERIOD  99
 UBDSV3 SAVING "        RECHARGE" ON UNIT   9 AT TIME STEP  1, STRESS PERIOD  99

 HEAD WILL BE SAVED ON UNIT   37 AT END OF TIME STEP    1, STRESS PERIOD   99

 DRAWDOWN WILL BE SAVED ON UNIT   38 AT END OF TIME STEP    1, STRESS PERIOD   99
1
  VOLUMETRIC BUDGET FOR ENTIRE MODEL AT END OF TIME STEP    1, STRESS PERIOD  99
  ------------------------------------------------------------------------------

     CUMULATIVE VOLUMES      L**3       RATES FOR THIS TIME STEP      L**3/T
     ------------------                 ------------------------

           IN:                                      IN:
           ---                                      ---
             STORAGE =       14747.6162               STORAGE =           0.0000
       CONSTANT HEAD =       25310.1641         CONSTANT HEAD =       1.7609E-03
            RECHARGE =        1200.0551              RECHARGE =       1.0213E-04

            TOTAL IN =       41257.8359              TOTAL IN =       1.8630E-03

          OUT:                                     OUT:
          ----                                     ----
             STORAGE =       11519.0986               STORAGE =       1.7219E-03
       CONSTANT HEAD =       29739.9277         CONSTANT HEAD =       1.4110E-04
            RECHARGE =           0.0000              RECHARGE =           0.0000

           TOTAL OUT =       41259.0273             TOTAL OUT =       1.8630E-03

            IN - OUT =          -1.1914              IN - OUT =       2.3283E-10

 PERCENT DISCREPANCY =          -0.00     PERCENT DISCREPANCY =           0.00






         TIME SUMMARY AT END OF TIME STEP    1 IN STRESS PERIOD   99
                    SECONDS     MINUTES      HOURS       DAYS        YEARS
                    -----------------------------------------------------------
   TIME STEP LENGTH  86400.      1440.0      24.000      1.0000     2.73785E-03
 STRESS PERIOD TIME  86400.      1440.0      24.000      1.0000     2.73785E-03
         TOTAL TIME 1.17504E+07 1.95840E+05  3264.0      136.00     0.37235    
1
1
                            STRESS PERIOD NO.  100, LENGTH =   86400.00    
                            -----------------------------------------------

                              NUMBER OF TIME STEPS =     1

                               MULTIPLIER FOR DELT =     1.000

                            INITIAL TIME STEP SIZE =   86400.00    

 REUSING RECH FROM LAST STRESS PERIOD

 CHD NO.   LAYER   ROW   COL    START HEAD        END HEAD         IFACE           
 ----------------------------------------------------------------------------------
      1      4      3      1       110.0           110.0           0.000    
      2      5      3      1       110.0           110.0           0.000    
      3      4      3      2       110.0           110.0           0.000    
      4      5      3      2       110.0           110.0           0.000    
      5      4      3      3       110.0           110.0           0.000    
      6      5      3      3       110.0           110.0           0.000    
      7      4      3      4       110.0           110.0           0.000    
      8      5      3      4       110.0           110.0           0.000    
      9      4      3      5       110.0           110.0           0.000    
     10      5      3      5       110.0           110.0           0.000    
     11      4      3      6       110.0           110.0           0.000    
     12      5      3      6       110.0           110.0           0.000    
     13      4      3      7       110.0           110.0           0.000    
     14      5      3      7       110.0           110.0           0.000    
     15      4      3      8       110.0           110.0           0.000    
     16      5      3      8       110.0           110.0           0.000    
     17      4      2      8       110.0           110.0           0.000    
     18      5      2      8       110.0           110.0           0.000    
     19      4      2      9       110.0           110.0           0.000    
     20      5      2      9       110.0           110.0           0.000    
     21      4      2     10       110.0           110.0           0.000    
     22      5      2     10       110.0           110.0           0.000    
     23      4      2     11       110.0           110.0           0.000    
     24      5      2     11       110.0           110.0           0.000    
     25      4      2     12       110.0           110.0           0.000    
     26      5      2     12       110.0           110.0           0.000    
     27      4      2     13       110.0           110.0           0.000    
     28      5      2     13       110.0           110.0           0.000    
     29      4      2     14       110.0           110.0           0.000    
     30      5      2     14       110.0           110.0           0.000    
     31      4      2     15       110.0           110.0           0.000    
     32      5      2     15       110.0           110.0           0.000    
     33      4      2     16       110.0           110.0           0.000    
     34      5      2     16       110.0           110.0           0.000    
     35      4      2     17       110.0           110.0           0.000    
     36      5      2     17       110.0           110.0           0.000    
     37      4      2     18       110.0           110.0           0.000    
     38      5      2     18       110.0           110.0           0.000    
     39      4      2     19       110.0           110.0           0.000    
     40      5      2     19       110.0           110.0           0.000    
     41      4      2     20       110.0           110.0           0.000    
     42      5      2     20       110.0           110.0           0.000    
     43      4      2     21       110.0           110.0           0.000    
     44      5      2     21       110.0           110.0           0.000    
     45      4      2     22       110.0           110.0           0.000    
     46      5      2     22       110.0           110.0           0.000    
     47      4      2     23       110.0           110.0           0.000    
     48      5      2     23       110.0           110.0           0.000    
     49      4      2     24       110.0           110.0           0.000    
     50      5      2     24       110.0           110.0           0.000    
     51      4      2     25       110.0           110.0           0.000    
     52      5      2     25       110.0           110.0           0.000    
     53      4      2     26       110.0           110.0           0.000    
     54      5      2     26       110.0           110.0           0.000    
     55      4      1     26       110.0           110.0           0.000    
     56      5      1     26       110.0           110.0           0.000    
     57      4      1     27       110.0           110.0           0.000    
     58      5      1     27       110.0           110.0           0.000    
     59      4      1     28       110.0           110.0           0.000    
     60      5      1     28       110.0           110.0           0.000    
     61      4      1     29       110.0           110.0           0.000    
     62      5      1     29       110.0           110.0           0.000    
     63      4      1     30       110.0           110.0           0.000    
     64      5      1     30       110.0           110.0           0.000    
     65      4      1     31       110.0           110.0           0.000    
     66      5      1     31       110.0           110.0           0.000    
     67      4      1     32       110.0           110.0           0.000    
     68      5      1     32       110.0           110.0           0.000    
     69      4      1     33       110.0           110.0           0.000    
     70      5      1     33       110.0           110.0           0.000    
     71      4      1     34       110.0           110.0           0.000    
     72      5      1     34       110.0           110.0           0.000    
     73      4      1     35       110.0           110.0           0.000    
     74      5      1     35       110.0           110.0           0.000    
     75      4     36     35       109.9           110.0           0.000    
     76      5     36     35       109.9           110.0           0.000    
     77      4     35     34       109.9           110.0           0.000    
     78      5     35     34       109.9           110.0           0.000    
     79      4     36     34       109.9           110.0           0.000    
     80      5     36     34       109.9           110.0           0.000    
     81      4     36     33       109.9           110.0           0.000    
     82      5     36     33       109.9           110.0           0.000    
     83      4     36     32       109.9           110.0           0.000    
     84      5     36     32       109.9           110.0           0.000    
     85      4     37     32       109.9           110.0           0.000    
     86      5     37     32       109.9           110.0           0.000    
     87      4     37     31       109.9           110.0           0.000    
     88      5     37     31       109.9           110.0           0.000    
     89      4     38     31       109.9           110.0           0.000    
     90      5     38     31       109.9           110.0           0.000    
     91      4     38     30       109.9           110.0           0.000    
     92      5     38     30       109.9           110.0           0.000    
     93      4     39     30       109.9           110.0           0.000    
     94      5     39     30       109.9           110.0           0.000    
     95      4     39     29       109.9           110.0           0.000    
     96      5     39     29       109.9           110.0           0.000    
     97      4     40     29       109.9           110.0           0.000    
     98      5     40     29       109.9           110.0           0.000    
     99      4     40     28       109.9           110.0           0.000    
    100      5     40     28       109.9           110.0           0.000    
    101      4     40     27       109.9           110.0           0.000    
    102      5     40     27       109.9           110.0           0.000    
    103      4     41     27       109.9           110.0           0.000    
    104      5     41     27       109.9           110.0           0.000    
    105      4     41     26       109.9           110.0           0.000    
    106      5     41     26       109.9           110.0           0.000    
    107      4     41     25       109.9           110.0           0.000    
    108      5     41     25       109.9           110.0           0.000    
    109      4     41     24       109.9           110.0           0.000    
    110      5     41     24       109.9           110.0           0.000    
    111      4     41     23       109.9           110.0           0.000    
    112      5     41     23       109.9           110.0           0.000    
    113      4     41     22       109.9           110.0           0.000    
    114      5     41     22       109.9           110.0           0.000    
    115      4     42     22       109.9           110.0           0.000    
    116      5     42     22       109.9           110.0           0.000    
    117      4     42     21       109.9           110.0           0.000    
    118      5     42     21       109.9           110.0           0.000    
    119      4     42     20       109.9           110.0           0.000    
    120      5     42     20       109.9           110.0           0.000    
    121      4     42     19       109.9           110.0           0.000    
    122      5     42     19       109.9           110.0           0.000    
    123      4     43     18       109.9           110.0           0.000    
    124      5     43     18       109.9           110.0           0.000    
    125      4     42     18       109.9           110.0           0.000    
    126      5     42     18       109.9           110.0           0.000    
    127      4     42     17       109.9           110.0           0.000    
    128      5     42     17       109.9           110.0           0.000    
    129      4     42     16       109.9           110.0           0.000    
    130      5     42     16       109.9           110.0           0.000    
    131      4     42     15       109.9           110.0           0.000    
    132      5     42     15       109.9           110.0           0.000    
    133      4     43     15       109.9           110.0           0.000    
    134      5     43     15       109.9           110.0           0.000    
    135      4     43     14       109.9           110.0           0.000    
    136      5     43     14       109.9           110.0           0.000    
    137      4     43     13       109.9           109.9           0.000    
    138      5     43     13       109.9           109.9           0.000    
    139      4     43     12       109.9           109.9           0.000    
    140      5     43     12       109.9           109.9           0.000    
    141      4     43     11       109.9           109.9           0.000    
    142      5     43     11       109.9           109.9           0.000    
    143      4     43     10       109.9           109.9           0.000    
    144      5     43     10       109.9           109.9           0.000    
    145      4     44     10       109.9           109.9           0.000    
    146      5     44     10       109.9           109.9           0.000    
    147      4     44      9       109.9           109.9           0.000    
    148      5     44      9       109.9           109.9           0.000    
    149      4     44      8       109.9           109.9           0.000    
    150      5     44      8       109.9           109.9           0.000    
    151      4     44      7       109.9           109.9           0.000    
    152      5     44      7       109.9           109.9           0.000    
    153      4     44      6       109.9           109.9           0.000    
    154      5     44      6       109.9           109.9           0.000    
    155      4     44      5       109.9           109.9           0.000    
    156      5     44      5       109.9           109.9           0.000    
    157      4     44      4       109.9           109.9           0.000    
    158      5     44      4       109.9           109.9           0.000    
    159      4     44      3       109.9           109.9           0.000    
    160      5     44      3       109.9           109.9           0.000    
    161      4     45      3       109.9           109.9           0.000    
    162      5     45      3       109.9           109.9           0.000    
    163      4     45      2       109.9           109.9           0.000    
    164      5     45      2       109.9           109.9           0.000    
    165      4     45      1       109.9           109.9           0.000    
    166      5     45      1       109.9           109.9           0.000    


    166 TIME-VARIANT SPECIFIED-HEAD CELLS

 SOLVING FOR HEAD 


     3 CALLS TO PCG ROUTINE FOR TIME STEP   1 IN STRESS PERIOD  100
    61 TOTAL ITERATIONS

 MAXIMUM HEAD CHANGE FOR EACH ITERATION (1 INDICATES THE FIRST INNER ITERATION):

    HEAD CHANGE    HEAD CHANGE    HEAD CHANGE    HEAD CHANGE    HEAD CHANGE 
   LAYER,ROW,COL  LAYER,ROW,COL  LAYER,ROW,COL  LAYER,ROW,COL  LAYER,ROW,COL
 ---------------------------------------------------------------------------
  1  0.1827      0 -0.9703E-01  0 -0.5517E-01  0 -0.4913E-01  0  0.5516E-01
   (  5, 43,  5)  (  5, 35,  1)  (  5, 40,  2)  (  5, 41,  2)  (  5, 37,  1)
  0  0.4043E-01  0  0.3956E-01  0 -0.4230E-01  0 -0.2533E-01  0  0.1934E-01
   (  5, 39,  1)  (  5, 40,  1)  (  5, 37,  1)  (  5, 37,  6)  (  5, 35,  1)
  0 -0.1864E-01  0  0.1210E-01  0  0.7738E-02  0 -0.1121E-01  0  0.8074E-02
   (  5, 35,  9)  (  5, 33, 10)  (  5, 33,  3)  (  5, 30,  9)  (  5, 36,  8)
  0 -0.4623E-02  0  0.4973E-02  0 -0.3615E-02  0 -0.2619E-02  0 -0.2937E-02
   (  5, 35,  4)  (  5, 34,  1)  (  5, 15,  1)  (  5, 31, 11)  (  5, 38,  4)
  0  0.2074E-02  0 -0.1600E-02  0  0.1740E-02  0  0.1525E-02  0 -0.1175E-02
   (  5, 37,  1)  (  5, 32,  4)  (  5, 34,  7)  (  5, 13,  1)  (  5, 13,  1)
  0  0.7821E-03  0 -0.4512E-03  0 -0.4466E-03  0  0.5235E-03  0 -0.3056E-03
   (  5, 40,  2)  (  5, 38,  1)  (  5, 35,  3)  (  5, 36,  1)  (  5, 31,  4)
  1  0.1853E-03  0 -0.2240E-03  0  0.1927E-03  0 -0.2307E-03  0  0.1181E-03
   (  5, 29,  2)  (  5, 40,  1)  (  5, 35,  3)  (  5, 38,  4)  (  5, 23,  6)
  0  0.9494E-04  0  0.1092E-03  0 -0.1131E-03  0  0.8091E-04  0 -0.5136E-04
   (  5, 29,  3)  (  5, 37,  2)  (  5, 37,  1)  (  5, 39,  1)  (  5, 37,  1)
  0 -0.3082E-04  0  0.5973E-04  0 -0.3920E-04  0 -0.2930E-04  0  0.2189E-04
   (  5, 29,  2)  (  5, 39,  2)  (  5, 41,  2)  (  5, 32,  9)  (  5, 34,  3)
  0 -0.2140E-04  0  0.1456E-04  0 -0.1636E-04  0  0.1280E-04  0 -0.5373E-05
   (  5, 39,  1)  (  5, 36,  1)  (  5, 37,  4)  (  5, 35,  2)  (  5, 30,  2)
  0 -0.9455E-05  0 -0.6837E-05  0  0.6439E-05  0 -0.3941E-05  0 -0.2446E-05
   (  5, 14,  2)  (  5, 35,  1)  (  5, 38,  1)  (  5, 40,  6)  (  5, 40,  2)
  0  0.2120E-05  0  0.1964E-05  0 -0.1605E-05  0  0.1085E-05  0 -0.1012E-05
   (  5, 42,  6)  (  5, 36,  6)  (  5, 31,  1)  (  5, 28,  3)  (  5, 26,  3)
  1 -0.6199E-06
   (  5, 36,  2)

 MAXIMUM RESIDUAL FOR EACH ITERATION (1 INDICATES THE FIRST INNER ITERATION):

    RESIDUAL       RESIDUAL       RESIDUAL       RESIDUAL       RESIDUAL    
   LAYER,ROW,COL  LAYER,ROW,COL  LAYER,ROW,COL  LAYER,ROW,COL  LAYER,ROW,COL
 ---------------------------------------------------------------------------
  1 -0.5593E-03  0 -0.4421E-03  0 -0.4070E-03  0 -0.3653E-03  0 -0.3053E-03
   (  4, 44,  2)  (  4, 35, 35)  (  4, 35, 35)  (  4, 35, 35)  (  4, 35, 35)
  0 -0.2477E-03  0  0.2126E-03  0  0.1837E-03  0  0.1510E-03  0  0.1258E-03
   (  4, 35, 35)  (  4, 43,  6)  (  4, 43,  5)  (  4, 43,  4)  (  4, 43,  4)
  0  0.9960E-04  0  0.8327E-04  0  0.7633E-04  0  0.6167E-04  0  0.5162E-04
   (  4, 43,  4)  (  4, 43,  4)  (  4, 43,  4)  (  4, 44,  2)  (  4, 44,  2)
  0  0.4667E-04  0  0.4039E-04  0  0.3135E-04  0  0.2480E-04  0  0.1945E-04
   (  4, 44,  2)  (  4, 44,  2)  (  4, 44,  2)  (  4, 44,  2)  (  4, 44,  2)
  0  0.1699E-04  0  0.1506E-04  0  0.1198E-04  0  0.8562E-05  0  0.6725E-05
   (  4, 44,  2)  (  4, 44,  2)  (  4, 44,  2)  (  4, 34, 35)  (  4, 34, 35)
  0  0.5252E-05  0  0.4686E-05  0  0.4079E-05  0  0.3308E-05  0  0.2416E-05
   (  4, 34, 35)  (  4, 34, 35)  (  4, 34, 35)  (  4, 34, 35)  (  4, 34, 35)
  1  0.2405E-05  0  0.2211E-05  0  0.2032E-05  0  0.1747E-05  0  0.1472E-05
   (  4, 34, 35)  (  4, 34, 35)  (  4, 34, 35)  (  4, 34, 35)  (  4, 34, 35)
  0  0.1185E-05  0  0.1039E-05  0  0.7995E-06  0  0.5873E-06  0  0.4787E-06
   (  4, 34, 35)  (  4, 34, 35)  (  4, 34, 35)  (  4, 34, 35)  (  4, 34, 35)
  0  0.4469E-06  0  0.3267E-06  0  0.2251E-06  0 -0.1835E-06  0 -0.1375E-06
   (  4, 34, 35)  (  4, 34, 35)  (  4, 44,  2)  (  3,  3,  1)  (  3,  3,  1)
  0 -0.1146E-06  0 -0.9992E-07  0 -0.7386E-07  0 -0.5119E-07  0 -0.4841E-07
   (  3,  3,  1)  (  3,  3,  1)  (  3,  3,  1)  (  3,  3,  1)  (  3,  3,  1)
  0 -0.3501E-07  0 -0.2934E-07  0 -0.2459E-07  0 -0.1998E-07  0 -0.1656E-07
   (  3,  3,  1)  (  3,  3,  1)  (  3, 40, 27)  (  3, 41, 22)  (  3, 41, 22)
  0 -0.1317E-07  0 -0.1051E-07  0 -0.9053E-08  0 -0.8023E-08  0 -0.7038E-08
   (  3, 41, 22)  (  3, 41, 22)  (  3, 41, 22)  (  3, 36, 35)  (  3, 36, 35)
  1 -0.6985E-08
   (  3, 36, 35)



 OUTPUT CONTROL FOR STRESS PERIOD  100   TIME STEP    1
    SAVE HEAD FOR ALL LAYERS
    SAVE DRAWDOWN FOR ALL LAYERS
    SAVE BUDGET
    PRINT BUDGET
 UBDSV1 SAVING "         STORAGE" ON UNIT   9 AT TIME STEP  1, STRESS PERIOD 100
 UBDSV2 SAVING "   CONSTANT HEAD" ON UNIT   9 AT TIME STEP  1, STRESS PERIOD 100
 UBDSV1 SAVING "FLOW RIGHT FACE " ON UNIT   9 AT TIME STEP  1, STRESS PERIOD 100
 UBDSV1 SAVING "FLOW FRONT FACE " ON UNIT   9 AT TIME STEP  1, STRESS PERIOD 100
 UBDSV1 SAVING "FLOW LOWER FACE " ON UNIT   9 AT TIME STEP  1, STRESS PERIOD 100
 UBDSV3 SAVING "        RECHARGE" ON UNIT   9 AT TIME STEP  1, STRESS PERIOD 100

 HEAD WILL BE SAVED ON UNIT   37 AT END OF TIME STEP    1, STRESS PERIOD  100

 DRAWDOWN WILL BE SAVED ON UNIT   38 AT END OF TIME STEP    1, STRESS PERIOD  100
1
  VOLUMETRIC BUDGET FOR ENTIRE MODEL AT END OF TIME STEP    1, STRESS PERIOD 100
  ------------------------------------------------------------------------------

     CUMULATIVE VOLUMES      L**3       RATES FOR THIS TIME STEP      L**3/T
     ------------------                 ------------------------

           IN:                                      IN:
           ---                                      ---
             STORAGE =       14747.6162               STORAGE =           0.0000
       CONSTANT HEAD =       25479.6348         CONSTANT HEAD =       1.9615E-03
            RECHARGE =        1208.8790              RECHARGE =       1.0213E-04

            TOTAL IN =       41436.1289              TOTAL IN =       2.0636E-03

          OUT:                                     OUT:
          ----                                     ----
             STORAGE =       11687.1006               STORAGE =       1.9445E-03
       CONSTANT HEAD =       29750.2129         CONSTANT HEAD =       1.1905E-04
            RECHARGE =           0.0000              RECHARGE =           0.0000

           TOTAL OUT =       41437.3125             TOTAL OUT =       2.0635E-03

            IN - OUT =          -1.1836              IN - OUT =       9.1037E-08

 PERCENT DISCREPANCY =          -0.00     PERCENT DISCREPANCY =           0.00






         TIME SUMMARY AT END OF TIME STEP    1 IN STRESS PERIOD  100
                    SECONDS     MINUTES      HOURS       DAYS        YEARS
                    -----------------------------------------------------------
   TIME STEP LENGTH  86400.      1440.0      24.000      1.0000     2.73785E-03
 STRESS PERIOD TIME  86400.      1440.0      24.000      1.0000     2.73785E-03
         TOTAL TIME 1.18368E+07 1.97280E+05  3288.0      137.00     0.37509    
1
1
                            STRESS PERIOD NO.  101, LENGTH =   345600.0    
                            -----------------------------------------------

                              NUMBER OF TIME STEPS =     4

                               MULTIPLIER FOR DELT =     1.000

                            INITIAL TIME STEP SIZE =   86400.00    

 REUSING RECH FROM LAST STRESS PERIOD

 CHD NO.   LAYER   ROW   COL    START HEAD        END HEAD         IFACE           
 ----------------------------------------------------------------------------------
      1      4      3      1       110.0           110.3           0.000    
      2      5      3      1       110.0           110.3           0.000    
      3      4      3      2       110.0           110.3           0.000    
      4      5      3      2       110.0           110.3           0.000    
      5      4      3      3       110.0           110.3           0.000    
      6      5      3      3       110.0           110.3           0.000    
      7      4      3      4       110.0           110.3           0.000    
      8      5      3      4       110.0           110.3           0.000    
      9      4      3      5       110.0           110.3           0.000    
     10      5      3      5       110.0           110.3           0.000    
     11      4      3      6       110.0           110.3           0.000    
     12      5      3      6       110.0           110.3           0.000    
     13      4      3      7       110.0           110.3           0.000    
     14      5      3      7       110.0           110.3           0.000    
     15      4      3      8       110.0           110.3           0.000    
     16      5      3      8       110.0           110.3           0.000    
     17      4      2      8       110.0           110.3           0.000    
     18      5      2      8       110.0           110.3           0.000    
     19      4      2      9       110.0           110.3           0.000    
     20      5      2      9       110.0           110.3           0.000    
     21      4      2     10       110.0           110.3           0.000    
     22      5      2     10       110.0           110.3           0.000    
     23      4      2     11       110.0           110.3           0.000    
     24      5      2     11       110.0           110.3           0.000    
     25      4      2     12       110.0           110.3           0.000    
     26      5      2     12       110.0           110.3           0.000    
     27      4      2     13       110.0           110.3           0.000    
     28      5      2     13       110.0           110.3           0.000    
     29      4      2     14       110.0           110.3           0.000    
     30      5      2     14       110.0           110.3           0.000    
     31      4      2     15       110.0           110.3           0.000    
     32      5      2     15       110.0           110.3           0.000    
     33      4      2     16       110.0           110.3           0.000    
     34      5      2     16       110.0           110.3           0.000    
     35      4      2     17       110.0           110.3           0.000    
     36      5      2     17       110.0           110.3           0.000    
     37      4      2     18       110.0           110.3           0.000    
     38      5      2     18       110.0           110.3           0.000    
     39      4      2     19       110.0           110.3           0.000    
     40      5      2     19       110.0           110.3           0.000    
     41      4      2     20       110.0           110.3           0.000    
     42      5      2     20       110.0           110.3           0.000    
     43      4      2     21       110.0           110.3           0.000    
     44      5      2     21       110.0           110.3           0.000    
     45      4      2     22       110.0           110.3           0.000    
     46      5      2     22       110.0           110.3           0.000    
     47      4      2     23       110.0           110.3           0.000    
     48      5      2     23       110.0           110.3           0.000    
     49      4      2     24       110.0           110.3           0.000    
     50      5      2     24       110.0           110.3           0.000    
     51      4      2     25       110.0           110.3           0.000    
     52      5      2     25       110.0           110.3           0.000    
     53      4      2     26       110.0           110.3           0.000    
     54      5      2     26       110.0           110.3           0.000    
     55      4      1     26       110.0           110.3           0.000    
     56      5      1     26       110.0           110.3           0.000    
     57      4      1     27       110.0           110.3           0.000    
     58      5      1     27       110.0           110.3           0.000    
     59      4      1     28       110.0           110.3           0.000    
     60      5      1     28       110.0           110.3           0.000    
     61      4      1     29       110.0           110.3           0.000    
     62      5      1     29       110.0           110.3           0.000    
     63      4      1     30       110.0           110.3           0.000    
     64      5      1     30       110.0           110.3           0.000    
     65      4      1     31       110.0           110.3           0.000    
     66      5      1     31       110.0           110.3           0.000    
     67      4      1     32       110.0           110.3           0.000    
     68      5      1     32       110.0           110.3           0.000    
     69      4      1     33       110.0           110.3           0.000    
     70      5      1     33       110.0           110.3           0.000    
     71      4      1     34       110.0           110.3           0.000    
     72      5      1     34       110.0           110.3           0.000    
     73      4      1     35       110.0           110.3           0.000    
     74      5      1     35       110.0           110.3           0.000    
     75      4     36     35       110.0           110.1           0.000    
     76      5     36     35       110.0           110.1           0.000    
     77      4     35     34       110.0           110.1           0.000    
     78      5     35     34       110.0           110.1           0.000    
     79      4     36     34       110.0           110.1           0.000    
     80      5     36     34       110.0           110.1           0.000    
     81      4     36     33       110.0           110.1           0.000    
     82      5     36     33       110.0           110.1           0.000    
     83      4     36     32       110.0           110.1           0.000    
     84      5     36     32       110.0           110.1           0.000    
     85      4     37     32       110.0           110.1           0.000    
     86      5     37     32       110.0           110.1           0.000    
     87      4     37     31       110.0           110.1           0.000    
     88      5     37     31       110.0           110.1           0.000    
     89      4     38     31       110.0           110.1           0.000    
     90      5     38     31       110.0           110.1           0.000    
     91      4     38     30       110.0           110.1           0.000    
     92      5     38     30       110.0           110.1           0.000    
     93      4     39     30       110.0           110.1           0.000    
     94      5     39     30       110.0           110.1           0.000    
     95      4     39     29       110.0           110.1           0.000    
     96      5     39     29       110.0           110.1           0.000    
     97      4     40     29       110.0           110.1           0.000    
     98      5     40     29       110.0           110.1           0.000    
     99      4     40     28       110.0           110.1           0.000    
    100      5     40     28       110.0           110.1           0.000    
    101      4     40     27       110.0           110.1           0.000    
    102      5     40     27       110.0           110.1           0.000    
    103      4     41     27       110.0           110.1           0.000    
    104      5     41     27       110.0           110.1           0.000    
    105      4     41     26       110.0           110.1           0.000    
    106      5     41     26       110.0           110.1           0.000    
    107      4     41     25       110.0           110.1           0.000    
    108      5     41     25       110.0           110.1           0.000    
    109      4     41     24       110.0           110.1           0.000    
    110      5     41     24       110.0           110.1           0.000    
    111      4     41     23       110.0           110.1           0.000    
    112      5     41     23       110.0           110.1           0.000    
    113      4     41     22       110.0           110.1           0.000    
    114      5     41     22       110.0           110.1           0.000    
    115      4     42     22       110.0           110.1           0.000    
    116      5     42     22       110.0           110.1           0.000    
    117      4     42     21       110.0           110.1           0.000    
    118      5     42     21       110.0           110.1           0.000    
    119      4     42     20       110.0           110.1           0.000    
    120      5     42     20       110.0           110.1           0.000    
    121      4     42     19       110.0           110.1           0.000    
    122      5     42     19       110.0           110.1           0.000    
    123      4     43     18       110.0           110.1           0.000    
    124      5     43     18       110.0           110.1           0.000    
    125      4     42     18       110.0           110.1           0.000    
    126      5     42     18       110.0           110.1           0.000    
    127      4     42     17       110.0           110.1           0.000    
    128      5     42     17       110.0           110.1           0.000    
    129      4     42     16       110.0           110.1           0.000    
    130      5     42     16       110.0           110.1           0.000    
    131      4     42     15       110.0           110.1           0.000    
    132      5     42     15       110.0           110.1           0.000    
    133      4     43     15       110.0           110.1           0.000    
    134      5     43     15       110.0           110.1           0.000    
    135      4     43     14       110.0           110.1           0.000    
    136      5     43     14       110.0           110.1           0.000    
    137      4     43     13       109.9           110.1           0.000    
    138      5     43     13       109.9           110.1           0.000    
    139      4     43     12       109.9           110.1           0.000    
    140      5     43     12       109.9           110.1           0.000    
    141      4     43     11       109.9           110.1           0.000    
    142      5     43     11       109.9           110.1           0.000    
    143      4     43     10       109.9           110.1           0.000    
    144      5     43     10       109.9           110.1           0.000    
    145      4     44     10       109.9           110.1           0.000    
    146      5     44     10       109.9           110.1           0.000    
    147      4     44      9       109.9           110.1           0.000    
    148      5     44      9       109.9           110.1           0.000    
    149      4     44      8       109.9           110.1           0.000    
    150      5     44      8       109.9           110.1           0.000    
    151      4     44      7       109.9           110.1           0.000    
    152      5     44      7       109.9           110.1           0.000    
    153      4     44      6       109.9           110.1           0.000    
    154      5     44      6       109.9           110.1           0.000    
    155      4     44      5       109.9           110.1           0.000    
    156      5     44      5       109.9           110.1           0.000    
    157      4     44      4       109.9           110.1           0.000    
    158      5     44      4       109.9           110.1           0.000    
    159      4     44      3       109.9           110.1           0.000    
    160      5     44      3       109.9           110.1           0.000    
    161      4     45      3       109.9           110.1           0.000    
    162      5     45      3       109.9           110.1           0.000    
    163      4     45      2       109.9           110.1           0.000    
    164      5     45      2       109.9           110.1           0.000    
    165      4     45      1       109.9           110.1           0.000    
    166      5     45      1       109.9           110.1           0.000    


    166 TIME-VARIANT SPECIFIED-HEAD CELLS

 SOLVING FOR HEAD 


     3 CALLS TO PCG ROUTINE FOR TIME STEP   1 IN STRESS PERIOD  101
    61 TOTAL ITERATIONS

 MAXIMUM HEAD CHANGE FOR EACH ITERATION (1 INDICATES THE FIRST INNER ITERATION):

    HEAD CHANGE    HEAD CHANGE    HEAD CHANGE    HEAD CHANGE    HEAD CHANGE 
   LAYER,ROW,COL  LAYER,ROW,COL  LAYER,ROW,COL  LAYER,ROW,COL  LAYER,ROW,COL
 ---------------------------------------------------------------------------
  1  0.1943      0 -0.1039      0 -0.5915E-01  0 -0.5154E-01  0  0.5701E-01
   (  5, 43,  5)  (  5, 35,  1)  (  5, 40,  2)  (  5, 41,  2)  (  5, 37,  1)
  0  0.4202E-01  0  0.3990E-01  0 -0.4404E-01  0 -0.2671E-01  0 -0.1998E-01
   (  5, 39,  1)  (  5, 40,  1)  (  5, 37,  1)  (  5, 37,  6)  (  5, 40,  1)
  0 -0.2016E-01  0  0.1383E-01  0 -0.9223E-02  0 -0.1140E-01  0  0.7961E-02
   (  5, 35,  9)  (  5, 32,  9)  (  5, 28,  2)  (  5, 30,  9)  (  5, 36,  8)
  0 -0.4549E-02  0  0.3721E-02  0 -0.4572E-02  0  0.2919E-02  0 -0.2766E-02
   (  5, 26, 10)  (  5, 35,  1)  (  5, 36,  4)  (  5, 36,  1)  (  5, 38,  4)
  0  0.2289E-02  0  0.1309E-02  0 -0.1566E-02  0  0.1540E-02  0 -0.1216E-02
   (  5, 37,  1)  (  5, 30,  5)  (  5, 32,  3)  (  5, 14,  1)  (  5, 13,  1)
  0  0.7253E-03  0 -0.4262E-03  0  0.2922E-03  0  0.3248E-03  0 -0.3192E-03
   (  5, 13,  1)  (  5, 38,  1)  (  5, 40,  2)  (  5, 35,  1)  (  5, 38,  2)
  1 -0.1800E-03  0  0.2241E-03  0 -0.2065E-03  0  0.2292E-03  0  0.2186E-03
   (  5, 33,  3)  (  5, 30,  4)  (  5, 35,  1)  (  5, 34,  3)  (  5, 41,  2)
  0 -0.1577E-03  0  0.1031E-03  0  0.1007E-03  0  0.7753E-04  0 -0.6856E-04
   (  5, 40,  2)  (  5, 37,  2)  (  5, 33,  4)  (  5, 40,  1)  (  5, 38,  1)
  0  0.6256E-04  0 -0.3460E-04  0  0.3872E-04  0 -0.3609E-04  0  0.2474E-04
   (  5, 40,  2)  (  5, 27,  1)  (  5, 31,  5)  (  5, 32,  8)  (  5, 35,  9)
  0  0.1802E-04  0 -0.2217E-04  0  0.1648E-04  0  0.1498E-04  0 -0.8097E-05
   (  5, 35,  3)  (  5, 39,  1)  (  5, 33,  5)  (  5, 41,  1)  (  5, 14,  2)
  0 -0.5941E-05  0  0.4638E-05  0 -0.4661E-05  0  0.5457E-05  0 -0.3321E-05
   (  5, 29,  3)  (  5, 33,  3)  (  5, 35,  1)  (  5, 38,  1)  (  5, 40,  4)
  0  0.3304E-05  0 -0.2767E-05  0  0.1685E-05  0 -0.1161E-05  0 -0.1659E-05
   (  5, 37,  2)  (  5, 38,  1)  (  5, 36,  6)  (  5, 35,  2)  (  5, 43,  5)
  1  0.6836E-06
   (  5, 33,  5)

 MAXIMUM RESIDUAL FOR EACH ITERATION (1 INDICATES THE FIRST INNER ITERATION):

    RESIDUAL       RESIDUAL       RESIDUAL       RESIDUAL       RESIDUAL    
   LAYER,ROW,COL  LAYER,ROW,COL  LAYER,ROW,COL  LAYER,ROW,COL  LAYER,ROW,COL
 ---------------------------------------------------------------------------
  1 -0.4837E-03  0 -0.3933E-03  0 -0.3542E-03  0 -0.3166E-03  0 -0.2713E-03
   (  3,  3,  1)  (  3,  3,  1)  (  3,  3,  1)  (  3,  3,  1)  (  3,  3,  1)
  0  0.2399E-03  0  0.2249E-03  0  0.1888E-03  0  0.1527E-03  0  0.1235E-03
   (  4, 43,  6)  (  4, 43,  6)  (  4, 43,  5)  (  4, 43,  4)  (  4, 43,  4)
  0  0.9499E-04  0  0.8297E-04  0  0.7688E-04  0  0.6495E-04  0  0.5261E-04
   (  4, 43,  4)  (  4, 44,  2)  (  4, 44,  2)  (  4, 44,  2)  (  4, 44,  2)
  0  0.4206E-04  0  0.3766E-04  0  0.3058E-04  0  0.2405E-04  0  0.2006E-04
   (  4, 44,  2)  (  4, 44,  2)  (  4, 44,  2)  (  4, 44,  2)  (  4, 44,  2)
  0  0.1638E-04  0  0.1439E-04  0  0.1139E-04  0  0.7580E-05  0  0.5580E-05
   (  4, 44,  2)  (  4, 44,  2)  (  4, 44,  2)  (  4, 44,  2)  (  4, 34, 35)
  0  0.4178E-05  0  0.3010E-05  0  0.2625E-05  0  0.2212E-05  0  0.1742E-05
   (  4, 34, 35)  (  4, 34, 35)  (  4, 34, 35)  (  4, 34, 35)  (  4, 34, 35)
  1  0.1705E-05  0  0.1632E-05  0  0.1538E-05  0  0.1411E-05  0  0.1176E-05
   (  4, 34, 35)  (  4, 34, 35)  (  4, 34, 35)  (  4, 34, 35)  (  4, 34, 35)
  0  0.8732E-06  0  0.7767E-06  0 -0.6010E-06  0 -0.4851E-06  0 -0.4091E-06
   (  4, 34, 35)  (  4, 34, 35)  (  3,  3,  1)  (  3,  3,  1)  (  3,  3,  1)
  0 -0.3231E-06  0 -0.2906E-06  0 -0.2483E-06  0 -0.2048E-06  0 -0.1542E-06
   (  3,  3,  1)  (  3,  3,  1)  (  3,  3,  1)  (  3,  3,  1)  (  3,  3,  1)
  0 -0.1398E-06  0 -0.1132E-06  0 -0.8100E-07  0 -0.5445E-07  0 -0.3966E-07
   (  3,  3,  1)  (  3,  3,  1)  (  3,  3,  1)  (  3,  3,  1)  (  3,  3,  1)
  0 -0.3422E-07  0 -0.2975E-07  0 -0.2612E-07  0 -0.2079E-07  0 -0.1674E-07
   (  3,  3,  1)  (  3,  3,  1)  (  3,  3,  1)  (  3,  3,  1)  (  3,  3,  1)
  0 -0.1413E-07  0 -0.1106E-07  0 -0.8702E-08  0 -0.7939E-08  0 -0.6505E-08
   (  3,  3,  1)  (  3,  3,  1)  (  3,  3,  1)  (  3,  3,  1)  (  3,  3,  8)
  1 -0.6131E-08
   (  3,  3,  8)



 OUTPUT CONTROL FOR STRESS PERIOD  101   TIME STEP    1
    SAVE HEAD FOR ALL LAYERS
    SAVE DRAWDOWN FOR ALL LAYERS
    SAVE BUDGET
    PRINT BUDGET
 UBDSV1 SAVING "         STORAGE" ON UNIT   9 AT TIME STEP  1, STRESS PERIOD 101
 UBDSV2 SAVING "   CONSTANT HEAD" ON UNIT   9 AT TIME STEP  1, STRESS PERIOD 101
 UBDSV1 SAVING "FLOW RIGHT FACE " ON UNIT   9 AT TIME STEP  1, STRESS PERIOD 101
 UBDSV1 SAVING "FLOW FRONT FACE " ON UNIT   9 AT TIME STEP  1, STRESS PERIOD 101
 UBDSV1 SAVING "FLOW LOWER FACE " ON UNIT   9 AT TIME STEP  1, STRESS PERIOD 101
 UBDSV3 SAVING "        RECHARGE" ON UNIT   9 AT TIME STEP  1, STRESS PERIOD 101

 HEAD WILL BE SAVED ON UNIT   37 AT END OF TIME STEP    1, STRESS PERIOD  101

 DRAWDOWN WILL BE SAVED ON UNIT   38 AT END OF TIME STEP    1, STRESS PERIOD  101
1
  VOLUMETRIC BUDGET FOR ENTIRE MODEL AT END OF TIME STEP    1, STRESS PERIOD 101
  ------------------------------------------------------------------------------

     CUMULATIVE VOLUMES      L**3       RATES FOR THIS TIME STEP      L**3/T
     ------------------                 ------------------------

           IN:                                      IN:
           ---                                      ---
             STORAGE =       14747.6162               STORAGE =           0.0000
       CONSTANT HEAD =       25672.6973         CONSTANT HEAD =       2.2345E-03
            RECHARGE =        1217.7030              RECHARGE =       1.0213E-04

            TOTAL IN =       41638.0156              TOTAL IN =       2.3367E-03

          OUT:                                     OUT:
          ----                                     ----
             STORAGE =       11875.8242               STORAGE =       2.1843E-03
       CONSTANT HEAD =       29763.3730         CONSTANT HEAD =       1.5231E-04
            RECHARGE =           0.0000              RECHARGE =           0.0000

           TOTAL OUT =       41639.1953             TOTAL OUT =       2.3366E-03

            IN - OUT =          -1.1797              IN - OUT =       5.1223E-08

 PERCENT DISCREPANCY =          -0.00     PERCENT DISCREPANCY =           0.00






         TIME SUMMARY AT END OF TIME STEP    1 IN STRESS PERIOD  101
                    SECONDS     MINUTES      HOURS       DAYS        YEARS
                    -----------------------------------------------------------
   TIME STEP LENGTH  86400.      1440.0      24.000      1.0000     2.73785E-03
 STRESS PERIOD TIME  86400.      1440.0      24.000      1.0000     2.73785E-03
         TOTAL TIME 1.19232E+07 1.98720E+05  3312.0      138.00     0.37782    
1

 SOLVING FOR HEAD 
     3 CALLS TO PCG ROUTINE FOR TIME STEP   2 IN STRESS PERIOD  101
    61 TOTAL ITERATIONS

 MAXIMUM HEAD CHANGE FOR EACH ITERATION (1 INDICATES THE FIRST INNER ITERATION):

    HEAD CHANGE    HEAD CHANGE    HEAD CHANGE    HEAD CHANGE    HEAD CHANGE 
   LAYER,ROW,COL  LAYER,ROW,COL  LAYER,ROW,COL  LAYER,ROW,COL  LAYER,ROW,COL
 ---------------------------------------------------------------------------
  1  0.1953      0 -0.1037      0 -0.5962E-01  0 -0.5172E-01  0  0.5576E-01
   (  5, 43,  5)  (  5, 35,  1)  (  5, 40,  2)  (  5, 41,  2)  (  5, 37,  1)
  0  0.4360E-01  0  0.3972E-01  0 -0.4333E-01  0 -0.2693E-01  0  0.2024E-01
   (  5, 39,  1)  (  5, 40,  1)  (  5, 37,  1)  (  5, 36,  6)  (  5, 35,  1)
  0 -0.1981E-01  0  0.1184E-01  0  0.8814E-02  0 -0.1179E-01  0  0.7918E-02
   (  5, 35,  9)  (  5, 33, 10)  (  5, 32,  8)  (  5, 30,  9)  (  5, 36,  8)
  0 -0.4519E-02  0  0.4980E-02  0 -0.3756E-02  0 -0.2703E-02  0 -0.2713E-02
   (  5, 35,  4)  (  5, 34,  1)  (  5, 35,  8)  (  5, 31, 11)  (  5, 36,  7)
  0 -0.1589E-02  0  0.1284E-02  0  0.1349E-02  0  0.6757E-03  0 -0.1169E-02
   (  5, 40,  2)  (  5, 38,  2)  (  5, 13,  1)  (  5, 30,  2)  (  5, 13,  1)
  0 -0.8346E-03  0  0.4865E-03  0 -0.4560E-03  0  0.4083E-03  0  0.3695E-03
   (  5, 37,  1)  (  5, 39,  3)  (  5, 35,  3)  (  5, 34,  4)  (  5, 41,  2)
  1  0.2298E-03  0 -0.1743E-03  0  0.1807E-03  0  0.1357E-03  0  0.1281E-03
   (  5, 39,  6)  (  5, 33,  4)  (  5, 30,  1)  (  5, 24,  6)  (  5, 35,  3)
  0 -0.1443E-03  0  0.1473E-03  0  0.1151E-03  0  0.8786E-04  0 -0.7277E-04
   (  5, 33,  1)  (  5, 37,  2)  (  5, 33,  4)  (  5, 39,  1)  (  5, 38,  1)
  0  0.6411E-04  0  0.4675E-04  0  0.3375E-04  0 -0.2404E-04  0  0.2766E-04
   (  5, 40,  2)  (  5, 30,  9)  (  5, 29,  1)  (  5, 32,  4)  (  5, 35,  9)
  0 -0.2322E-04  0 -0.1938E-04  0  0.1352E-04  0  0.1391E-04  0 -0.1308E-04
   (  5, 39,  1)  (  5, 37,  4)  (  5, 36,  1)  (  5, 41,  1)  (  5, 14,  1)
  0  0.7836E-05  0 -0.6155E-05  0  0.3977E-05  0 -0.4468E-05  0  0.3356E-05
   (  5, 39,  5)  (  5, 36,  1)  (  5, 28,  1)  (  5, 33,  6)  (  5, 36,  7)
  0 -0.2961E-05  0  0.2318E-05  0 -0.1906E-05  0  0.1514E-05  0 -0.1172E-05
   (  5, 40,  2)  (  5, 41,  5)  (  5, 37,  1)  (  5, 35,  1)  (  5, 34,  4)
  1  0.7224E-06
   (  5, 34,  5)

 MAXIMUM RESIDUAL FOR EACH ITERATION (1 INDICATES THE FIRST INNER ITERATION):

    RESIDUAL       RESIDUAL       RESIDUAL       RESIDUAL       RESIDUAL    
   LAYER,ROW,COL  LAYER,ROW,COL  LAYER,ROW,COL  LAYER,ROW,COL  LAYER,ROW,COL
 ---------------------------------------------------------------------------
  1 -0.4816E-03  0 -0.3920E-03  0 -0.3532E-03  0 -0.3161E-03  0 -0.2716E-03
   (  3,  3,  1)  (  3,  3,  1)  (  3,  3,  1)  (  3,  3,  1)  (  3,  3,  1)
  0  0.2402E-03  0  0.2248E-03  0  0.1889E-03  0  0.1526E-03  0  0.1232E-03
   (  4, 43,  6)  (  4, 43,  6)  (  4, 43,  5)  (  4, 43,  4)  (  4, 43,  4)
  0  0.9486E-04  0  0.8123E-04  0  0.7674E-04  0  0.6492E-04  0  0.5271E-04
   (  4, 43,  4)  (  4, 44,  2)  (  4, 44,  2)  (  4, 44,  2)  (  4, 44,  2)
  0  0.4804E-04  0  0.4033E-04  0  0.3066E-04  0  0.2401E-04  0  0.1771E-04
   (  4, 44,  2)  (  4, 44,  2)  (  4, 44,  2)  (  4, 44,  2)  (  4, 44,  2)
  0  0.1312E-04  0  0.1152E-04  0  0.8124E-05  0  0.7619E-05  0  0.5618E-05
   (  4, 44,  2)  (  4, 44,  2)  (  4, 44,  2)  (  4, 44,  2)  (  4, 34, 35)
  0  0.4273E-05  0  0.3853E-05  0  0.3397E-05  0  0.2648E-05  0  0.1768E-05
   (  4, 34, 35)  (  4, 34, 35)  (  4, 34, 35)  (  4, 34, 35)  (  4, 34, 35)
  1  0.1667E-05  0  0.1476E-05  0  0.1356E-05  0  0.1219E-05  0  0.1036E-05
   (  4, 34, 35)  (  4, 34, 35)  (  4, 34, 35)  (  4, 34, 35)  (  4, 34, 35)
  0  0.8634E-06  0  0.7707E-06  0 -0.6029E-06  0 -0.4924E-06  0 -0.4121E-06
   (  4, 34, 35)  (  4, 34, 35)  (  3,  3,  1)  (  3,  3,  1)  (  3,  3,  1)
  0 -0.3260E-06  0 -0.2614E-06  0 -0.2249E-06  0 -0.2055E-06  0 -0.1558E-06
   (  3,  3,  1)  (  3,  3,  1)  (  3,  3,  1)  (  3,  3,  1)  (  3,  3,  1)
  0 -0.1206E-06  0 -0.9555E-07  0 -0.8030E-07  0 -0.5606E-07  0 -0.4035E-07
   (  3,  3,  1)  (  3,  3,  1)  (  3,  3,  1)  (  3,  3,  1)  (  3,  3,  1)
  0 -0.3146E-07  0 -0.2778E-07  0 -0.2523E-07  0 -0.2134E-07  0 -0.1629E-07
   (  3,  3,  1)  (  3,  3,  1)  (  3,  3,  1)  (  3,  3,  1)  (  3,  3,  1)
  0 -0.1243E-07  0 -0.9793E-08  0 -0.8622E-08  0 -0.7742E-08  0 -0.7166E-08
   (  3,  3,  1)  (  3,  3,  1)  (  3,  3,  8)  (  3,  3,  8)  (  3,  3,  8)
  1 -0.6694E-08
   (  3,  3,  8)



 OUTPUT CONTROL FOR STRESS PERIOD  101   TIME STEP    2
    SAVE HEAD FOR ALL LAYERS
    SAVE DRAWDOWN FOR ALL LAYERS
    SAVE BUDGET
    PRINT BUDGET
 UBDSV1 SAVING "         STORAGE" ON UNIT   9 AT TIME STEP  2, STRESS PERIOD 101
 UBDSV2 SAVING "   CONSTANT HEAD" ON UNIT   9 AT TIME STEP  2, STRESS PERIOD 101
 UBDSV1 SAVING "FLOW RIGHT FACE " ON UNIT   9 AT TIME STEP  2, STRESS PERIOD 101
 UBDSV1 SAVING "FLOW FRONT FACE " ON UNIT   9 AT TIME STEP  2, STRESS PERIOD 101
 UBDSV1 SAVING "FLOW LOWER FACE " ON UNIT   9 AT TIME STEP  2, STRESS PERIOD 101
 UBDSV3 SAVING "        RECHARGE" ON UNIT   9 AT TIME STEP  2, STRESS PERIOD 101

 HEAD WILL BE SAVED ON UNIT   37 AT END OF TIME STEP    2, STRESS PERIOD  101

 DRAWDOWN WILL BE SAVED ON UNIT   38 AT END OF TIME STEP    2, STRESS PERIOD  101
1
  VOLUMETRIC BUDGET FOR ENTIRE MODEL AT END OF TIME STEP    2, STRESS PERIOD 101
  ------------------------------------------------------------------------------

     CUMULATIVE VOLUMES      L**3       RATES FOR THIS TIME STEP      L**3/T
     ------------------                 ------------------------

           IN:                                      IN:
           ---                                      ---
             STORAGE =       14747.6162               STORAGE =           0.0000
       CONSTANT HEAD =       25875.6074         CONSTANT HEAD =       2.3485E-03
            RECHARGE =        1226.5270              RECHARGE =       1.0213E-04

            TOTAL IN =       41849.7500              TOTAL IN =       2.4506E-03

          OUT:                                     OUT:
          ----                                     ----
             STORAGE =       12070.0605               STORAGE =       2.2481E-03
       CONSTANT HEAD =       29780.8672         CONSTANT HEAD =       2.0248E-04
            RECHARGE =           0.0000              RECHARGE =           0.0000

           TOTAL OUT =       41850.9297             TOTAL OUT =       2.4506E-03

            IN - OUT =          -1.1797              IN - OUT =       4.8196E-08

 PERCENT DISCREPANCY =          -0.00     PERCENT DISCREPANCY =           0.00






         TIME SUMMARY AT END OF TIME STEP    2 IN STRESS PERIOD  101
                    SECONDS     MINUTES      HOURS       DAYS        YEARS
                    -----------------------------------------------------------
   TIME STEP LENGTH  86400.      1440.0      24.000      1.0000     2.73785E-03
 STRESS PERIOD TIME 1.72800E+05  2880.0      48.000      2.0000     5.47570E-03
         TOTAL TIME 1.20096E+07 2.00160E+05  3336.0      139.00     0.38056    
1

 SOLVING FOR HEAD 
     3 CALLS TO PCG ROUTINE FOR TIME STEP   3 IN STRESS PERIOD  101
    61 TOTAL ITERATIONS

 MAXIMUM HEAD CHANGE FOR EACH ITERATION (1 INDICATES THE FIRST INNER ITERATION):

    HEAD CHANGE    HEAD CHANGE    HEAD CHANGE    HEAD CHANGE    HEAD CHANGE 
   LAYER,ROW,COL  LAYER,ROW,COL  LAYER,ROW,COL  LAYER,ROW,COL  LAYER,ROW,COL
 ---------------------------------------------------------------------------
  1  0.1954      0 -0.1034      0 -0.5992E-01  0 -0.5175E-01  0  0.5530E-01
   (  5, 43,  5)  (  5, 35,  1)  (  5, 40,  2)  (  5, 41,  2)  (  5, 37,  1)
  0  0.4412E-01  0  0.3961E-01  0 -0.4306E-01  0 -0.2712E-01  0  0.2033E-01
   (  5, 39,  1)  (  5, 40,  1)  (  5, 37,  1)  (  5, 36,  6)  (  5, 35,  1)
  0 -0.2021E-01  0  0.1932E-01  0 -0.1181E-01  0 -0.7637E-02  0  0.6548E-02
   (  5, 35,  9)  (  5, 32,  9)  (  5, 30,  9)  (  5, 34,  4)  (  5, 36,  8)
  0 -0.3811E-02  0 -0.4306E-02  0 -0.3787E-02  0 -0.2732E-02  0 -0.2749E-02
   (  5, 25,  2)  (  5, 38,  1)  (  5, 35,  8)  (  5, 31, 11)  (  5, 36,  7)
  0 -0.1643E-02  0  0.1659E-02  0  0.1406E-02  0 -0.6825E-03  0 -0.1160E-02
   (  5, 39,  4)  (  5, 36,  4)  (  5, 13,  1)  (  5, 27,  1)  (  5, 13,  1)
  0  0.8862E-03  0 -0.5528E-03  0  0.4275E-03  0  0.4234E-03  0  0.3289E-03
   (  5, 40,  2)  (  5, 37,  1)  (  5, 34,  4)  (  5, 39,  4)  (  5, 41,  2)
  1  0.2303E-03  0 -0.1721E-03  0  0.2400E-03  0 -0.1209E-03  0  0.2501E-03
   (  5, 39,  6)  (  5, 28,  2)  (  5, 31,  1)  (  5, 33,  4)  (  5, 37,  1)
  0 -0.1506E-03  0  0.9709E-04  0  0.1288E-03  0 -0.6926E-04  0  0.5879E-04
   (  5, 35,  1)  (  5, 30, 12)  (  5, 39,  1)  (  5, 37,  1)  (  5, 34,  1)
  0 -0.5257E-04  0  0.2875E-04  0  0.3718E-04  0 -0.3588E-04  0  0.2726E-04
   (  5, 35,  3)  (  5, 31,  5)  (  5, 30,  9)  (  5, 32,  8)  (  5, 35,  9)
  0 -0.2558E-04  0  0.1653E-04  0 -0.1782E-04  0  0.1475E-04  0 -0.8489E-05
   (  5, 39,  1)  (  5, 36,  1)  (  5, 37,  4)  (  5, 41,  1)  (  5, 34,  4)
  0  0.7601E-05  0 -0.7940E-05  0  0.5125E-05  0 -0.4645E-05  0  0.3601E-05
   (  5, 30,  3)  (  5, 36,  1)  (  5, 38,  1)  (  5, 41,  5)  (  5, 36,  1)
  0 -0.2771E-05  0  0.2044E-05  0  0.1403E-05  0 -0.1662E-05  0  0.1411E-05
   (  5, 40,  2)  (  5, 41,  5)  (  5, 28,  2)  (  5, 35,  6)  (  5, 38,  2)
  1 -0.7230E-06
   (  5, 37,  2)

 MAXIMUM RESIDUAL FOR EACH ITERATION (1 INDICATES THE FIRST INNER ITERATION):

    RESIDUAL       RESIDUAL       RESIDUAL       RESIDUAL       RESIDUAL    
   LAYER,ROW,COL  LAYER,ROW,COL  LAYER,ROW,COL  LAYER,ROW,COL  LAYER,ROW,COL
 ---------------------------------------------------------------------------
  1 -0.4815E-03  0 -0.3921E-03  0 -0.3534E-03  0 -0.3163E-03  0 -0.2720E-03
   (  3,  3,  1)  (  3,  3,  1)  (  3,  3,  1)  (  3,  3,  1)  (  3,  3,  1)
  0  0.2402E-03  0  0.2248E-03  0  0.1890E-03  0  0.1527E-03  0  0.1233E-03
   (  4, 43,  6)  (  4, 43,  6)  (  4, 43,  5)  (  4, 43,  4)  (  4, 43,  4)
  0  0.9499E-04  0  0.7832E-04  0  0.6632E-04  0  0.5994E-04  0  0.5318E-04
   (  4, 43,  4)  (  4, 44,  2)  (  4, 44,  2)  (  4, 44,  2)  (  4, 44,  2)
  0  0.4986E-04  0  0.4043E-04  0  0.3073E-04  0  0.2407E-04  0  0.1807E-04
   (  4, 44,  2)  (  4, 44,  2)  (  4, 44,  2)  (  4, 44,  2)  (  4, 44,  2)
  0  0.1601E-04  0  0.1185E-04  0  0.8376E-05  0  0.7699E-05  0  0.5653E-05
   (  4, 44,  2)  (  4, 44,  2)  (  4, 44,  2)  (  4, 44,  2)  (  4, 34, 35)
  0  0.4498E-05  0  0.4093E-05  0  0.3658E-05  0  0.2662E-05  0  0.1771E-05
   (  4, 34, 35)  (  4, 34, 35)  (  4, 34, 35)  (  4, 34, 35)  (  4, 34, 35)
  1  0.1669E-05  0  0.1552E-05  0  0.1349E-05  0  0.1263E-05  0  0.9992E-06
   (  4, 34, 35)  (  4, 34, 35)  (  4, 34, 35)  (  4, 34, 35)  (  4, 34, 35)
  0  0.8752E-06  0 -0.6844E-06  0 -0.5860E-06  0 -0.4954E-06  0 -0.4147E-06
   (  4, 34, 35)  (  3,  3,  1)  (  3,  3,  1)  (  3,  3,  1)  (  3,  3,  1)
  0 -0.3294E-06  0 -0.3137E-06  0 -0.2565E-06  0 -0.2057E-06  0 -0.1565E-06
   (  3,  3,  1)  (  3,  3,  1)  (  3,  3,  1)  (  3,  3,  1)  (  3,  3,  1)
  0 -0.1201E-06  0 -0.9864E-07  0 -0.7936E-07  0 -0.5539E-07  0 -0.4545E-07
   (  3,  3,  1)  (  3,  3,  1)  (  3,  3,  1)  (  3,  3,  1)  (  3,  3,  1)
  0 -0.3889E-07  0 -0.2988E-07  0 -0.2638E-07  0 -0.2128E-07  0 -0.1632E-07
   (  3,  3,  1)  (  3,  3,  1)  (  3,  3,  1)  (  3,  3,  1)  (  3,  3,  1)
  0 -0.1246E-07  0 -0.1016E-07  0 -0.9427E-08  0 -0.8180E-08  0 -0.7316E-08
   (  3,  3,  1)  (  3,  3,  8)  (  3,  3,  8)  (  3,  3,  8)  (  3,  3,  8)
  1 -0.6950E-08
   (  3,  3,  8)



 OUTPUT CONTROL FOR STRESS PERIOD  101   TIME STEP    3
    SAVE HEAD FOR ALL LAYERS
    SAVE DRAWDOWN FOR ALL LAYERS
    SAVE BUDGET
    PRINT BUDGET
 UBDSV1 SAVING "         STORAGE" ON UNIT   9 AT TIME STEP  3, STRESS PERIOD 101
 UBDSV2 SAVING "   CONSTANT HEAD" ON UNIT   9 AT TIME STEP  3, STRESS PERIOD 101
 UBDSV1 SAVING "FLOW RIGHT FACE " ON UNIT   9 AT TIME STEP  3, STRESS PERIOD 101
 UBDSV1 SAVING "FLOW FRONT FACE " ON UNIT   9 AT TIME STEP  3, STRESS PERIOD 101
 UBDSV1 SAVING "FLOW LOWER FACE " ON UNIT   9 AT TIME STEP  3, STRESS PERIOD 101
 UBDSV3 SAVING "        RECHARGE" ON UNIT   9 AT TIME STEP  3, STRESS PERIOD 101

 HEAD WILL BE SAVED ON UNIT   37 AT END OF TIME STEP    3, STRESS PERIOD  101

 DRAWDOWN WILL BE SAVED ON UNIT   38 AT END OF TIME STEP    3, STRESS PERIOD  101
1
  VOLUMETRIC BUDGET FOR ENTIRE MODEL AT END OF TIME STEP    3, STRESS PERIOD 101
  ------------------------------------------------------------------------------

     CUMULATIVE VOLUMES      L**3       RATES FOR THIS TIME STEP      L**3/T
     ------------------                 ------------------------

           IN:                                      IN:
           ---                                      ---
             STORAGE =       14747.6162               STORAGE =           0.0000
       CONSTANT HEAD =       26086.5664         CONSTANT HEAD =       2.4416E-03
            RECHARGE =        1235.3510              RECHARGE =       1.0213E-04

            TOTAL IN =       42069.5352              TOTAL IN =       2.5438E-03

          OUT:                                     OUT:
          ----                                     ----
             STORAGE =       12266.0635               STORAGE =       2.2686E-03
       CONSTANT HEAD =       29804.6426         CONSTANT HEAD =       2.7517E-04
            RECHARGE =           0.0000              RECHARGE =           0.0000

           TOTAL OUT =       42070.7070             TOTAL OUT =       2.5437E-03

            IN - OUT =          -1.1719              IN - OUT =       5.0524E-08

 PERCENT DISCREPANCY =          -0.00     PERCENT DISCREPANCY =           0.00






         TIME SUMMARY AT END OF TIME STEP    3 IN STRESS PERIOD  101
                    SECONDS     MINUTES      HOURS       DAYS        YEARS
                    -----------------------------------------------------------
   TIME STEP LENGTH  86400.      1440.0      24.000      1.0000     2.73785E-03
 STRESS PERIOD TIME 2.59200E+05  4320.0      72.000      3.0000     8.21355E-03
         TOTAL TIME 1.20960E+07 2.01600E+05  3360.0      140.00     0.38330    
1

 SOLVING FOR HEAD 
     4 CALLS TO PCG ROUTINE FOR TIME STEP   4 IN STRESS PERIOD  101
    63 TOTAL ITERATIONS

 MAXIMUM HEAD CHANGE FOR EACH ITERATION (1 INDICATES THE FIRST INNER ITERATION):

    HEAD CHANGE    HEAD CHANGE    HEAD CHANGE    HEAD CHANGE    HEAD CHANGE 
   LAYER,ROW,COL  LAYER,ROW,COL  LAYER,ROW,COL  LAYER,ROW,COL  LAYER,ROW,COL
 ---------------------------------------------------------------------------
  1  0.1954      0 -0.1033      0 -0.5998E-01  0 -0.5181E-01  0  0.5519E-01
   (  5, 43,  5)  (  5, 35,  1)  (  5, 40,  2)  (  5, 41,  2)  (  5, 37,  1)
  0  0.4429E-01  0  0.3957E-01  0 -0.4298E-01  0 -0.2718E-01  0  0.2033E-01
   (  5, 39,  1)  (  5, 40,  1)  (  5, 37,  1)  (  5, 36,  6)  (  5, 35,  1)
  0 -0.1983E-01  0  0.9648E-02  0  0.1088E-01  0 -0.1175E-01  0  0.7700E-02
   (  5, 35,  9)  (  5, 33, 10)  (  5, 32,  8)  (  5, 30,  9)  (  5, 36,  8)
  0 -0.4141E-02  0  0.4462E-02  0 -0.3798E-02  0 -0.2780E-02  0  0.2785E-02
   (  5, 35,  4)  (  5, 34,  1)  (  5, 35,  8)  (  5, 39,  1)  (  5, 37,  1)
  0 -0.1893E-02  0 -0.1289E-02  0  0.1871E-02  0  0.1525E-02  0 -0.1197E-02
   (  5, 38,  4)  (  5, 32,  4)  (  5, 36,  4)  (  5, 13,  1)  (  5, 13,  1)
  0  0.6547E-03  0 -0.3901E-03  0  0.5711E-03  0 -0.3699E-03  0  0.3973E-03
   (  5, 12,  1)  (  5, 35,  3)  (  5, 39,  4)  (  5, 38,  1)  (  5, 41,  2)
  1 -0.2051E-03  0  0.1799E-03  0  0.2170E-03  0 -0.2050E-03  0  0.1517E-03
   (  5, 32,  1)  (  5, 30,  4)  (  5, 38,  1)  (  5, 38,  4)  (  5, 34,  3)
  0 -0.1371E-03  0  0.1410E-03  0  0.1085E-03  0  0.9086E-04  0 -0.7621E-04
   (  5, 34,  1)  (  5, 37,  2)  (  5, 33,  4)  (  5, 39,  1)  (  5, 37,  1)
  0  0.6434E-04  0 -0.3447E-04  0  0.5021E-04  0 -0.3629E-04  0  0.2736E-04
   (  5, 31,  3)  (  5, 35,  4)  (  5, 30,  9)  (  5, 32,  8)  (  5, 35,  9)
  0 -0.2610E-04  0  0.1472E-04  0 -0.1930E-04  0  0.1541E-04  0  0.9273E-05
   (  5, 39,  1)  (  5, 36,  1)  (  5, 37,  4)  (  5, 41,  1)  (  5, 30,  3)
  0 -0.6437E-05  0  0.6540E-05  0 -0.7815E-05  0  0.4972E-05  0  0.3071E-05
   (  5, 33,  3)  (  5, 39,  5)  (  5, 36,  1)  (  5, 39,  1)  (  5, 36,  7)
  0 -0.2700E-05  0 -0.2603E-05  0  0.1708E-05  0 -0.1027E-05  0  0.1408E-05
   (  5, 37,  7)  (  5, 38,  1)  (  5, 40,  1)  (  5, 26,  4)  (  5, 28,  2)
  1 -0.1030E-05  0  0.5339E-06  1 -0.4860E-06
   (  5, 32,  2)  (  5, 27,  5)  (  5, 27,  4)

 MAXIMUM RESIDUAL FOR EACH ITERATION (1 INDICATES THE FIRST INNER ITERATION):

    RESIDUAL       RESIDUAL       RESIDUAL       RESIDUAL       RESIDUAL    
   LAYER,ROW,COL  LAYER,ROW,COL  LAYER,ROW,COL  LAYER,ROW,COL  LAYER,ROW,COL
 ---------------------------------------------------------------------------
  1 -0.4819E-03  0 -0.3926E-03  0 -0.3538E-03  0 -0.3167E-03  0 -0.2725E-03
   (  3,  3,  1)  (  3,  3,  1)  (  3,  3,  1)  (  3,  3,  1)  (  3,  3,  1)
  0  0.2401E-03  0  0.2248E-03  0  0.1891E-03  0  0.1528E-03  0  0.1234E-03
   (  4, 43,  6)  (  4, 43,  6)  (  4, 43,  5)  (  4, 43,  4)  (  4, 43,  4)
  0  0.9519E-04  0  0.8250E-04  0  0.7692E-04  0  0.6510E-04  0  0.5318E-04
   (  4, 43,  4)  (  4, 44,  2)  (  4, 44,  2)  (  4, 44,  2)  (  4, 44,  2)
  0  0.4973E-04  0  0.4049E-04  0  0.3080E-04  0  0.2419E-04  0  0.1931E-04
   (  4, 44,  2)  (  4, 44,  2)  (  4, 44,  2)  (  4, 44,  2)  (  4, 44,  2)
  0  0.1657E-04  0  0.1524E-04  0  0.1158E-04  0  0.7773E-05  0  0.5675E-05
   (  4, 44,  2)  (  4, 44,  2)  (  4, 44,  2)  (  4, 44,  2)  (  4, 34, 35)
  0  0.4252E-05  0  0.3984E-05  0  0.2971E-05  0  0.2582E-05  0  0.1769E-05
   (  4, 34, 35)  (  4, 34, 35)  (  4, 34, 35)  (  4, 34, 35)  (  4, 34, 35)
  1  0.1697E-05  0  0.1650E-05  0  0.1470E-05  0  0.1277E-05  0  0.1187E-05
   (  4, 34, 35)  (  4, 34, 35)  (  4, 34, 35)  (  4, 34, 35)  (  4, 34, 35)
  0  0.8967E-06  0  0.8058E-06  0 -0.6083E-06  0 -0.5097E-06  0 -0.4153E-06
   (  4, 34, 35)  (  4, 34, 35)  (  3,  3,  1)  (  3,  3,  1)  (  3,  3,  1)
  0 -0.3454E-06  0 -0.3212E-06  0 -0.2571E-06  0 -0.2047E-06  0 -0.1561E-06
   (  3,  3,  1)  (  3,  3,  1)  (  3,  3,  1)  (  3,  3,  1)  (  3,  3,  1)
  0 -0.1194E-06  0 -0.1052E-06  0 -0.7821E-07  0 -0.5430E-07  0 -0.4396E-07
   (  3,  3,  1)  (  3,  3,  1)  (  3,  3,  1)  (  3,  3,  1)  (  3,  3,  1)
  0 -0.3864E-07  0 -0.3383E-07  0 -0.2691E-07  0 -0.2098E-07  0 -0.1629E-07
   (  3,  3,  1)  (  3,  3,  1)  (  3,  3,  1)  (  3,  3,  1)  (  3,  3,  1)
  0 -0.1301E-07  0 -0.1163E-07  0 -0.1038E-07  0 -0.9874E-08  0 -0.8634E-08
   (  3,  3,  1)  (  3,  3,  8)  (  3,  3,  8)  (  3,  3,  8)  (  3,  3,  8)
  1 -0.8258E-08  0 -0.8082E-08  1 -0.8030E-08
   (  3,  3,  8)  (  3,  3,  8)  (  3,  3,  8)



 OUTPUT CONTROL FOR STRESS PERIOD  101   TIME STEP    4
    SAVE HEAD FOR ALL LAYERS
    SAVE DRAWDOWN FOR ALL LAYERS
    SAVE BUDGET
    PRINT BUDGET
 UBDSV1 SAVING "         STORAGE" ON UNIT   9 AT TIME STEP  4, STRESS PERIOD 101
 UBDSV2 SAVING "   CONSTANT HEAD" ON UNIT   9 AT TIME STEP  4, STRESS PERIOD 101
 UBDSV1 SAVING "FLOW RIGHT FACE " ON UNIT   9 AT TIME STEP  4, STRESS PERIOD 101
 UBDSV1 SAVING "FLOW FRONT FACE " ON UNIT   9 AT TIME STEP  4, STRESS PERIOD 101
 UBDSV1 SAVING "FLOW LOWER FACE " ON UNIT   9 AT TIME STEP  4, STRESS PERIOD 101
 UBDSV3 SAVING "        RECHARGE" ON UNIT   9 AT TIME STEP  4, STRESS PERIOD 101

 HEAD WILL BE SAVED ON UNIT   37 AT END OF TIME STEP    4, STRESS PERIOD  101

 DRAWDOWN WILL BE SAVED ON UNIT   38 AT END OF TIME STEP    4, STRESS PERIOD  101
1
  VOLUMETRIC BUDGET FOR ENTIRE MODEL AT END OF TIME STEP    4, STRESS PERIOD 101
  ------------------------------------------------------------------------------

     CUMULATIVE VOLUMES      L**3       RATES FOR THIS TIME STEP      L**3/T
     ------------------                 ------------------------

           IN:                                      IN:
           ---                                      ---
             STORAGE =       14747.6162               STORAGE =           0.0000
       CONSTANT HEAD =       26307.7227         CONSTANT HEAD =       2.5597E-03
            RECHARGE =        1244.1749              RECHARGE =       1.0213E-04

            TOTAL IN =       42299.5156              TOTAL IN =       2.6618E-03

          OUT:                                     OUT:
          ----                                     ----
             STORAGE =       12462.6699               STORAGE =       2.2755E-03
       CONSTANT HEAD =       29838.0117         CONSTANT HEAD =       3.8623E-04
            RECHARGE =           0.0000              RECHARGE =           0.0000

           TOTAL OUT =       42300.6797             TOTAL OUT =       2.6618E-03

            IN - OUT =          -1.1641              IN - OUT =       4.7032E-08

 PERCENT DISCREPANCY =          -0.00     PERCENT DISCREPANCY =           0.00






         TIME SUMMARY AT END OF TIME STEP    4 IN STRESS PERIOD  101
                    SECONDS     MINUTES      HOURS       DAYS        YEARS
                    -----------------------------------------------------------
   TIME STEP LENGTH  86400.      1440.0      24.000      1.0000     2.73785E-03
 STRESS PERIOD TIME 3.45600E+05  5760.0      96.000      4.0000     1.09514E-02
         TOTAL TIME 1.21824E+07 2.03040E+05  3384.0      141.00     0.38604    
1
1
                            STRESS PERIOD NO.  102, LENGTH =   86400.00    
                            -----------------------------------------------

                              NUMBER OF TIME STEPS =     1

                               MULTIPLIER FOR DELT =     1.000

                            INITIAL TIME STEP SIZE =   86400.00    

 REUSING RECH FROM LAST STRESS PERIOD

 CHD NO.   LAYER   ROW   COL    START HEAD        END HEAD         IFACE           
 ----------------------------------------------------------------------------------
      1      4      3      1       110.3           110.2           0.000    
      2      5      3      1       110.3           110.2           0.000    
      3      4      3      2       110.3           110.2           0.000    
      4      5      3      2       110.3           110.2           0.000    
      5      4      3      3       110.3           110.2           0.000    
      6      5      3      3       110.3           110.2           0.000    
      7      4      3      4       110.3           110.2           0.000    
      8      5      3      4       110.3           110.2           0.000    
      9      4      3      5       110.3           110.2           0.000    
     10      5      3      5       110.3           110.2           0.000    
     11      4      3      6       110.3           110.2           0.000    
     12      5      3      6       110.3           110.2           0.000    
     13      4      3      7       110.3           110.2           0.000    
     14      5      3      7       110.3           110.2           0.000    
     15      4      3      8       110.3           110.2           0.000    
     16      5      3      8       110.3           110.2           0.000    
     17      4      2      8       110.3           110.2           0.000    
     18      5      2      8       110.3           110.2           0.000    
     19      4      2      9       110.3           110.2           0.000    
     20      5      2      9       110.3           110.2           0.000    
     21      4      2     10       110.3           110.2           0.000    
     22      5      2     10       110.3           110.2           0.000    
     23      4      2     11       110.3           110.2           0.000    
     24      5      2     11       110.3           110.2           0.000    
     25      4      2     12       110.3           110.2           0.000    
     26      5      2     12       110.3           110.2           0.000    
     27      4      2     13       110.3           110.2           0.000    
     28      5      2     13       110.3           110.2           0.000    
     29      4      2     14       110.3           110.2           0.000    
     30      5      2     14       110.3           110.2           0.000    
     31      4      2     15       110.3           110.2           0.000    
     32      5      2     15       110.3           110.2           0.000    
     33      4      2     16       110.3           110.2           0.000    
     34      5      2     16       110.3           110.2           0.000    
     35      4      2     17       110.3           110.2           0.000    
     36      5      2     17       110.3           110.2           0.000    
     37      4      2     18       110.3           110.2           0.000    
     38      5      2     18       110.3           110.2           0.000    
     39      4      2     19       110.3           110.2           0.000    
     40      5      2     19       110.3           110.2           0.000    
     41      4      2     20       110.3           110.2           0.000    
     42      5      2     20       110.3           110.2           0.000    
     43      4      2     21       110.3           110.2           0.000    
     44      5      2     21       110.3           110.2           0.000    
     45      4      2     22       110.3           110.2           0.000    
     46      5      2     22       110.3           110.2           0.000    
     47      4      2     23       110.3           110.2           0.000    
     48      5      2     23       110.3           110.2           0.000    
     49      4      2     24       110.3           110.2           0.000    
     50      5      2     24       110.3           110.2           0.000    
     51      4      2     25       110.3           110.2           0.000    
     52      5      2     25       110.3           110.2           0.000    
     53      4      2     26       110.3           110.2           0.000    
     54      5      2     26       110.3           110.2           0.000    
     55      4      1     26       110.3           110.2           0.000    
     56      5      1     26       110.3           110.2           0.000    
     57      4      1     27       110.3           110.2           0.000    
     58      5      1     27       110.3           110.2           0.000    
     59      4      1     28       110.3           110.2           0.000    
     60      5      1     28       110.3           110.2           0.000    
     61      4      1     29       110.3           110.2           0.000    
     62      5      1     29       110.3           110.2           0.000    
     63      4      1     30       110.3           110.2           0.000    
     64      5      1     30       110.3           110.2           0.000    
     65      4      1     31       110.3           110.2           0.000    
     66      5      1     31       110.3           110.2           0.000    
     67      4      1     32       110.3           110.2           0.000    
     68      5      1     32       110.3           110.2           0.000    
     69      4      1     33       110.3           110.2           0.000    
     70      5      1     33       110.3           110.2           0.000    
     71      4      1     34       110.3           110.2           0.000    
     72      5      1     34       110.3           110.2           0.000    
     73      4      1     35       110.3           110.2           0.000    
     74      5      1     35       110.3           110.2           0.000    
     75      4     36     35       110.1           110.2           0.000    
     76      5     36     35       110.1           110.2           0.000    
     77      4     35     34       110.1           110.2           0.000    
     78      5     35     34       110.1           110.2           0.000    
     79      4     36     34       110.1           110.2           0.000    
     80      5     36     34       110.1           110.2           0.000    
     81      4     36     33       110.1           110.2           0.000    
     82      5     36     33       110.1           110.2           0.000    
     83      4     36     32       110.1           110.2           0.000    
     84      5     36     32       110.1           110.2           0.000    
     85      4     37     32       110.1           110.2           0.000    
     86      5     37     32       110.1           110.2           0.000    
     87      4     37     31       110.1           110.2           0.000    
     88      5     37     31       110.1           110.2           0.000    
     89      4     38     31       110.1           110.2           0.000    
     90      5     38     31       110.1           110.2           0.000    
     91      4     38     30       110.1           110.2           0.000    
     92      5     38     30       110.1           110.2           0.000    
     93      4     39     30       110.1           110.2           0.000    
     94      5     39     30       110.1           110.2           0.000    
     95      4     39     29       110.1           110.2           0.000    
     96      5     39     29       110.1           110.2           0.000    
     97      4     40     29       110.1           110.2           0.000    
     98      5     40     29       110.1           110.2           0.000    
     99      4     40     28       110.1           110.2           0.000    
    100      5     40     28       110.1           110.2           0.000    
    101      4     40     27       110.1           110.2           0.000    
    102      5     40     27       110.1           110.2           0.000    
    103      4     41     27       110.1           110.2           0.000    
    104      5     41     27       110.1           110.2           0.000    
    105      4     41     26       110.1           110.2           0.000    
    106      5     41     26       110.1           110.2           0.000    
    107      4     41     25       110.1           110.2           0.000    
    108      5     41     25       110.1           110.2           0.000    
    109      4     41     24       110.1           110.1           0.000    
    110      5     41     24       110.1           110.1           0.000    
    111      4     41     23       110.1           110.1           0.000    
    112      5     41     23       110.1           110.1           0.000    
    113      4     41     22       110.1           110.1           0.000    
    114      5     41     22       110.1           110.1           0.000    
    115      4     42     22       110.1           110.1           0.000    
    116      5     42     22       110.1           110.1           0.000    
    117      4     42     21       110.1           110.1           0.000    
    118      5     42     21       110.1           110.1           0.000    
    119      4     42     20       110.1           110.1           0.000    
    120      5     42     20       110.1           110.1           0.000    
    121      4     42     19       110.1           110.1           0.000    
    122      5     42     19       110.1           110.1           0.000    
    123      4     43     18       110.1           110.1           0.000    
    124      5     43     18       110.1           110.1           0.000    
    125      4     42     18       110.1           110.1           0.000    
    126      5     42     18       110.1           110.1           0.000    
    127      4     42     17       110.1           110.1           0.000    
    128      5     42     17       110.1           110.1           0.000    
    129      4     42     16       110.1           110.1           0.000    
    130      5     42     16       110.1           110.1           0.000    
    131      4     42     15       110.1           110.1           0.000    
    132      5     42     15       110.1           110.1           0.000    
    133      4     43     15       110.1           110.1           0.000    
    134      5     43     15       110.1           110.1           0.000    
    135      4     43     14       110.1           110.1           0.000    
    136      5     43     14       110.1           110.1           0.000    
    137      4     43     13       110.1           110.1           0.000    
    138      5     43     13       110.1           110.1           0.000    
    139      4     43     12       110.1           110.1           0.000    
    140      5     43     12       110.1           110.1           0.000    
    141      4     43     11       110.1           110.1           0.000    
    142      5     43     11       110.1           110.1           0.000    
    143      4     43     10       110.1           110.1           0.000    
    144      5     43     10       110.1           110.1           0.000    
    145      4     44     10       110.1           110.1           0.000    
    146      5     44     10       110.1           110.1           0.000    
    147      4     44      9       110.1           110.1           0.000    
    148      5     44      9       110.1           110.1           0.000    
    149      4     44      8       110.1           110.1           0.000    
    150      5     44      8       110.1           110.1           0.000    
    151      4     44      7       110.1           110.1           0.000    
    152      5     44      7       110.1           110.1           0.000    
    153      4     44      6       110.1           110.1           0.000    
    154      5     44      6       110.1           110.1           0.000    
    155      4     44      5       110.1           110.1           0.000    
    156      5     44      5       110.1           110.1           0.000    
    157      4     44      4       110.1           110.1           0.000    
    158      5     44      4       110.1           110.1           0.000    
    159      4     44      3       110.1           110.1           0.000    
    160      5     44      3       110.1           110.1           0.000    
    161      4     45      3       110.1           110.1           0.000    
    162      5     45      3       110.1           110.1           0.000    
    163      4     45      2       110.1           110.1           0.000    
    164      5     45      2       110.1           110.1           0.000    
    165      4     45      1       110.1           110.1           0.000    
    166      5     45      1       110.1           110.1           0.000    


    166 TIME-VARIANT SPECIFIED-HEAD CELLS

 SOLVING FOR HEAD 


     3 CALLS TO PCG ROUTINE FOR TIME STEP   1 IN STRESS PERIOD  102
    61 TOTAL ITERATIONS

 MAXIMUM HEAD CHANGE FOR EACH ITERATION (1 INDICATES THE FIRST INNER ITERATION):

    HEAD CHANGE    HEAD CHANGE    HEAD CHANGE    HEAD CHANGE    HEAD CHANGE 
   LAYER,ROW,COL  LAYER,ROW,COL  LAYER,ROW,COL  LAYER,ROW,COL  LAYER,ROW,COL
 ---------------------------------------------------------------------------
  1 -0.1075      0 -0.5243E-01  0 -0.5018E-01  0  0.5149E-01  0  0.3767E-01
   (  3,  4,  4)  (  5, 35,  1)  (  5, 39,  2)  (  5, 35,  2)  (  5, 37,  1)
  0  0.4676E-01  0 -0.3476E-01  0 -0.2188E-01  0 -0.2196E-01  0  0.1734E-01
   (  5, 39,  1)  (  5, 36,  1)  (  5, 34,  6)  (  5, 37,  6)  (  5, 35,  7)
  0 -0.1785E-01  0  0.9733E-02  0 -0.8386E-02  0 -0.1011E-01  0 -0.4373E-02
   (  5, 35,  9)  (  5, 32,  8)  (  5, 26,  1)  (  5, 30,  9)  (  5, 20,  1)
  0 -0.3720E-02  0 -0.3246E-02  0  0.2702E-02  0  0.2569E-02  0 -0.1518E-02
   (  5, 27, 11)  (  5, 35,  3)  (  5, 26, 11)  (  5, 14,  1)  (  5, 23, 10)
  0  0.1118E-02  0 -0.1174E-02  0  0.1084E-02  0 -0.1065E-02  0 -0.6853E-03
   (  5, 29,  2)  (  5, 32,  3)  (  5, 36,  3)  (  5, 38,  6)  (  5, 30, 11)
  0 -0.5048E-03  0 -0.3928E-03  0 -0.3460E-03  0 -0.2336E-03  0  0.1338E-03
   (  5, 39,  6)  (  5, 31,  1)  (  5, 38,  1)  (  5, 30, 14)  (  5, 28,  1)
  1 -0.1214E-03  0  0.1264E-03  0  0.1390E-03  0  0.1257E-03  0 -0.8517E-04
   (  5, 30,  2)  (  5, 38,  7)  (  5, 37,  1)  (  5, 32,  2)  (  5, 35,  1)
  0  0.1144E-03  0 -0.8955E-04  0  0.5957E-04  0 -0.7985E-04  0  0.6091E-04
   (  5, 38,  6)  (  5, 38,  4)  (  5, 37,  2)  (  5, 15,  1)  (  5, 40,  1)
  0 -0.4214E-04  0  0.2478E-04  0 -0.3561E-04  0 -0.2628E-04  0  0.1467E-04
   (  5, 38,  1)  (  5, 30,  4)  (  5, 32,  2)  (  5, 24, 10)  (  5, 14,  1)
  0 -0.1381E-04  0  0.1014E-04  0  0.9512E-05  0 -0.9541E-05  0  0.6432E-05
   (  5, 14,  1)  (  5, 36,  1)  (  5, 32,  9)  (  5, 33,  9)  (  5, 36,  9)
  0 -0.5798E-05  0  0.3875E-05  0  0.3530E-05  0  0.2757E-05  0  0.2906E-05
   (  5, 33,  5)  (  5, 28,  1)  (  5, 38,  1)  (  5, 35,  7)  (  5, 37,  2)
  0 -0.1991E-05  0 -0.2058E-05  0  0.1384E-05  0 -0.1348E-05  0  0.7653E-06
   (  5, 23,  2)  (  5, 37,  1)  (  5, 40,  1)  (  5, 41,  2)  (  5, 34,  1)
  1  0.5929E-06
   (  5, 29,  5)

 MAXIMUM RESIDUAL FOR EACH ITERATION (1 INDICATES THE FIRST INNER ITERATION):

    RESIDUAL       RESIDUAL       RESIDUAL       RESIDUAL       RESIDUAL    
   LAYER,ROW,COL  LAYER,ROW,COL  LAYER,ROW,COL  LAYER,ROW,COL  LAYER,ROW,COL
 ---------------------------------------------------------------------------
  1  0.4481E-03  0  0.4157E-03  0  0.3835E-03  0  0.3261E-03  0  0.2662E-03
   (  3,  3,  1)  (  3,  3,  1)  (  3,  3,  1)  (  3,  3,  1)  (  3,  3,  1)
  0  0.2119E-03  0  0.1738E-03  0  0.1441E-03  0  0.1115E-03  0  0.8438E-04
   (  3,  3,  1)  (  3,  3,  1)  (  3,  3,  1)  (  3,  3,  1)  (  3,  3,  1)
  0  0.6571E-04  0  0.5752E-04  0 -0.4892E-04  0 -0.3876E-04  0 -0.3071E-04
   (  3,  3,  1)  (  3,  3,  1)  (  3,  3,  9)  (  3,  3,  9)  (  3,  3,  9)
  0 -0.2507E-04  0  0.2278E-04  0  0.1825E-04  0  0.1436E-04  0  0.1151E-04
   (  3,  3,  9)  (  3,  3,  1)  (  3,  3,  1)  (  3,  3,  1)  (  3,  3,  1)
  0  0.1076E-04  0 -0.9318E-05  0 -0.8379E-05  0 -0.6562E-05  0 -0.4883E-05
   (  3,  3,  1)  (  3,  3,  7)  (  3,  3,  7)  (  3,  3,  7)  (  3,  3,  7)
  0 -0.3633E-05  0 -0.2748E-05  0 -0.2401E-05  0 -0.1876E-05  0 -0.1800E-05
   (  3,  3,  2)  (  3,  3,  2)  (  3,  3,  2)  (  3,  3,  2)  (  3,  3,  2)
  1 -0.1928E-05  0 -0.1849E-05  0 -0.1705E-05  0 -0.1523E-05  0 -0.1451E-05
   (  3,  3,  2)  (  3,  3,  2)  (  3,  3,  2)  (  3,  3,  2)  (  3,  3,  2)
  0 -0.1139E-05  0 -0.8862E-06  0 -0.8043E-06  0 -0.6294E-06  0 -0.4829E-06
   (  3,  3,  2)  (  3,  3,  2)  (  3,  3,  2)  (  3,  3,  2)  (  3,  3,  2)
  0 -0.3848E-06  0 -0.3501E-06  0 -0.2749E-06  0 -0.2024E-06  0 -0.1365E-06
   (  3,  3,  2)  (  3,  3,  2)  (  3,  3,  2)  (  3,  3,  2)  (  3,  3,  2)
  0 -0.9781E-07  0 -0.8503E-07  0 -0.6471E-07  0 -0.4795E-07  0  0.3644E-07
   (  3,  3,  2)  (  3,  3,  2)  (  3,  3,  2)  (  3,  3,  2)  (  3,  3,  1)
  0  0.3031E-07  0  0.2681E-07  0  0.2047E-07  0  0.1664E-07  0  0.1422E-07
   (  3,  3,  1)  (  3,  3,  1)  (  3,  3,  1)  (  3,  3,  1)  (  3,  3,  1)
  0  0.1126E-07  0  0.9581E-08  0  0.8326E-08  0  0.6495E-08  0  0.5927E-08
   (  2,  3,  2)  (  2,  3,  2)  (  2,  3,  2)  (  2,  3,  2)  (  2,  3,  2)
  1  0.5672E-08
   (  2,  3,  2)



 OUTPUT CONTROL FOR STRESS PERIOD  102   TIME STEP    1
    SAVE HEAD FOR ALL LAYERS
    SAVE DRAWDOWN FOR ALL LAYERS
    SAVE BUDGET
    PRINT BUDGET
 UBDSV1 SAVING "         STORAGE" ON UNIT   9 AT TIME STEP  1, STRESS PERIOD 102
 UBDSV2 SAVING "   CONSTANT HEAD" ON UNIT   9 AT TIME STEP  1, STRESS PERIOD 102
 UBDSV1 SAVING "FLOW RIGHT FACE " ON UNIT   9 AT TIME STEP  1, STRESS PERIOD 102
 UBDSV1 SAVING "FLOW FRONT FACE " ON UNIT   9 AT TIME STEP  1, STRESS PERIOD 102
 UBDSV1 SAVING "FLOW LOWER FACE " ON UNIT   9 AT TIME STEP  1, STRESS PERIOD 102
 UBDSV3 SAVING "        RECHARGE" ON UNIT   9 AT TIME STEP  1, STRESS PERIOD 102

 HEAD WILL BE SAVED ON UNIT   37 AT END OF TIME STEP    1, STRESS PERIOD  102

 DRAWDOWN WILL BE SAVED ON UNIT   38 AT END OF TIME STEP    1, STRESS PERIOD  102
1
  VOLUMETRIC BUDGET FOR ENTIRE MODEL AT END OF TIME STEP    1, STRESS PERIOD 102
  ------------------------------------------------------------------------------

     CUMULATIVE VOLUMES      L**3       RATES FOR THIS TIME STEP      L**3/T
     ------------------                 ------------------------

           IN:                                      IN:
           ---                                      ---
             STORAGE =       14805.1250               STORAGE =       6.6561E-04
       CONSTANT HEAD =       26320.8906         CONSTANT HEAD =       1.5240E-04
            RECHARGE =        1252.9989              RECHARGE =       1.0213E-04

            TOTAL IN =       42379.0156              TOTAL IN =       9.2014E-04

          OUT:                                     OUT:
          ----                                     ----
             STORAGE =       12486.8008               STORAGE =       2.7930E-04
       CONSTANT HEAD =       29893.3965         CONSTANT HEAD =       6.4104E-04
            RECHARGE =           0.0000              RECHARGE =           0.0000

           TOTAL OUT =       42380.1953             TOTAL OUT =       9.2034E-04

            IN - OUT =          -1.1797              IN - OUT =      -1.9884E-07

 PERCENT DISCREPANCY =          -0.00     PERCENT DISCREPANCY =          -0.02






         TIME SUMMARY AT END OF TIME STEP    1 IN STRESS PERIOD  102
                    SECONDS     MINUTES      HOURS       DAYS        YEARS
                    -----------------------------------------------------------
   TIME STEP LENGTH  86400.      1440.0      24.000      1.0000     2.73785E-03
 STRESS PERIOD TIME  86400.      1440.0      24.000      1.0000     2.73785E-03
         TOTAL TIME 1.22688E+07 2.04480E+05  3408.0      142.00     0.38877    
1
1
                            STRESS PERIOD NO.  103, LENGTH =   86400.00    
                            -----------------------------------------------

                              NUMBER OF TIME STEPS =     1

                               MULTIPLIER FOR DELT =     1.000

                            INITIAL TIME STEP SIZE =   86400.00    

 REUSING RECH FROM LAST STRESS PERIOD

 CHD NO.   LAYER   ROW   COL    START HEAD        END HEAD         IFACE           
 ----------------------------------------------------------------------------------
      1      4      3      1       110.2           110.3           0.000    
      2      5      3      1       110.2           110.3           0.000    
      3      4      3      2       110.2           110.3           0.000    
      4      5      3      2       110.2           110.3           0.000    
      5      4      3      3       110.2           110.3           0.000    
      6      5      3      3       110.2           110.3           0.000    
      7      4      3      4       110.2           110.3           0.000    
      8      5      3      4       110.2           110.3           0.000    
      9      4      3      5       110.2           110.3           0.000    
     10      5      3      5       110.2           110.3           0.000    
     11      4      3      6       110.2           110.3           0.000    
     12      5      3      6       110.2           110.3           0.000    
     13      4      3      7       110.2           110.3           0.000    
     14      5      3      7       110.2           110.3           0.000    
     15      4      3      8       110.2           110.3           0.000    
     16      5      3      8       110.2           110.3           0.000    
     17      4      2      8       110.2           110.3           0.000    
     18      5      2      8       110.2           110.3           0.000    
     19      4      2      9       110.2           110.3           0.000    
     20      5      2      9       110.2           110.3           0.000    
     21      4      2     10       110.2           110.3           0.000    
     22      5      2     10       110.2           110.3           0.000    
     23      4      2     11       110.2           110.3           0.000    
     24      5      2     11       110.2           110.3           0.000    
     25      4      2     12       110.2           110.3           0.000    
     26      5      2     12       110.2           110.3           0.000    
     27      4      2     13       110.2           110.3           0.000    
     28      5      2     13       110.2           110.3           0.000    
     29      4      2     14       110.2           110.3           0.000    
     30      5      2     14       110.2           110.3           0.000    
     31      4      2     15       110.2           110.3           0.000    
     32      5      2     15       110.2           110.3           0.000    
     33      4      2     16       110.2           110.3           0.000    
     34      5      2     16       110.2           110.3           0.000    
     35      4      2     17       110.2           110.3           0.000    
     36      5      2     17       110.2           110.3           0.000    
     37      4      2     18       110.2           110.3           0.000    
     38      5      2     18       110.2           110.3           0.000    
     39      4      2     19       110.2           110.3           0.000    
     40      5      2     19       110.2           110.3           0.000    
     41      4      2     20       110.2           110.3           0.000    
     42      5      2     20       110.2           110.3           0.000    
     43      4      2     21       110.2           110.3           0.000    
     44      5      2     21       110.2           110.3           0.000    
     45      4      2     22       110.2           110.3           0.000    
     46      5      2     22       110.2           110.3           0.000    
     47      4      2     23       110.2           110.3           0.000    
     48      5      2     23       110.2           110.3           0.000    
     49      4      2     24       110.2           110.3           0.000    
     50      5      2     24       110.2           110.3           0.000    
     51      4      2     25       110.2           110.3           0.000    
     52      5      2     25       110.2           110.3           0.000    
     53      4      2     26       110.2           110.3           0.000    
     54      5      2     26       110.2           110.3           0.000    
     55      4      1     26       110.2           110.3           0.000    
     56      5      1     26       110.2           110.3           0.000    
     57      4      1     27       110.2           110.3           0.000    
     58      5      1     27       110.2           110.3           0.000    
     59      4      1     28       110.2           110.3           0.000    
     60      5      1     28       110.2           110.3           0.000    
     61      4      1     29       110.2           110.3           0.000    
     62      5      1     29       110.2           110.3           0.000    
     63      4      1     30       110.2           110.3           0.000    
     64      5      1     30       110.2           110.3           0.000    
     65      4      1     31       110.2           110.3           0.000    
     66      5      1     31       110.2           110.3           0.000    
     67      4      1     32       110.2           110.3           0.000    
     68      5      1     32       110.2           110.3           0.000    
     69      4      1     33       110.2           110.3           0.000    
     70      5      1     33       110.2           110.3           0.000    
     71      4      1     34       110.2           110.3           0.000    
     72      5      1     34       110.2           110.3           0.000    
     73      4      1     35       110.2           110.3           0.000    
     74      5      1     35       110.2           110.3           0.000    
     75      4     36     35       110.2           110.3           0.000    
     76      5     36     35       110.2           110.3           0.000    
     77      4     35     34       110.2           110.3           0.000    
     78      5     35     34       110.2           110.3           0.000    
     79      4     36     34       110.2           110.3           0.000    
     80      5     36     34       110.2           110.3           0.000    
     81      4     36     33       110.2           110.3           0.000    
     82      5     36     33       110.2           110.3           0.000    
     83      4     36     32       110.2           110.3           0.000    
     84      5     36     32       110.2           110.3           0.000    
     85      4     37     32       110.2           110.3           0.000    
     86      5     37     32       110.2           110.3           0.000    
     87      4     37     31       110.2           110.3           0.000    
     88      5     37     31       110.2           110.3           0.000    
     89      4     38     31       110.2           110.3           0.000    
     90      5     38     31       110.2           110.3           0.000    
     91      4     38     30       110.2           110.3           0.000    
     92      5     38     30       110.2           110.3           0.000    
     93      4     39     30       110.2           110.3           0.000    
     94      5     39     30       110.2           110.3           0.000    
     95      4     39     29       110.2           110.3           0.000    
     96      5     39     29       110.2           110.3           0.000    
     97      4     40     29       110.2           110.3           0.000    
     98      5     40     29       110.2           110.3           0.000    
     99      4     40     28       110.2           110.3           0.000    
    100      5     40     28       110.2           110.3           0.000    
    101      4     40     27       110.2           110.3           0.000    
    102      5     40     27       110.2           110.3           0.000    
    103      4     41     27       110.2           110.3           0.000    
    104      5     41     27       110.2           110.3           0.000    
    105      4     41     26       110.2           110.3           0.000    
    106      5     41     26       110.2           110.3           0.000    
    107      4     41     25       110.2           110.3           0.000    
    108      5     41     25       110.2           110.3           0.000    
    109      4     41     24       110.1           110.3           0.000    
    110      5     41     24       110.1           110.3           0.000    
    111      4     41     23       110.1           110.3           0.000    
    112      5     41     23       110.1           110.3           0.000    
    113      4     41     22       110.1           110.3           0.000    
    114      5     41     22       110.1           110.3           0.000    
    115      4     42     22       110.1           110.3           0.000    
    116      5     42     22       110.1           110.3           0.000    
    117      4     42     21       110.1           110.3           0.000    
    118      5     42     21       110.1           110.3           0.000    
    119      4     42     20       110.1           110.3           0.000    
    120      5     42     20       110.1           110.3           0.000    
    121      4     42     19       110.1           110.3           0.000    
    122      5     42     19       110.1           110.3           0.000    
    123      4     43     18       110.1           110.3           0.000    
    124      5     43     18       110.1           110.3           0.000    
    125      4     42     18       110.1           110.3           0.000    
    126      5     42     18       110.1           110.3           0.000    
    127      4     42     17       110.1           110.3           0.000    
    128      5     42     17       110.1           110.3           0.000    
    129      4     42     16       110.1           110.3           0.000    
    130      5     42     16       110.1           110.3           0.000    
    131      4     42     15       110.1           110.3           0.000    
    132      5     42     15       110.1           110.3           0.000    
    133      4     43     15       110.1           110.3           0.000    
    134      5     43     15       110.1           110.3           0.000    
    135      4     43     14       110.1           110.3           0.000    
    136      5     43     14       110.1           110.3           0.000    
    137      4     43     13       110.1           110.3           0.000    
    138      5     43     13       110.1           110.3           0.000    
    139      4     43     12       110.1           110.3           0.000    
    140      5     43     12       110.1           110.3           0.000    
    141      4     43     11       110.1           110.3           0.000    
    142      5     43     11       110.1           110.3           0.000    
    143      4     43     10       110.1           110.3           0.000    
    144      5     43     10       110.1           110.3           0.000    
    145      4     44     10       110.1           110.3           0.000    
    146      5     44     10       110.1           110.3           0.000    
    147      4     44      9       110.1           110.3           0.000    
    148      5     44      9       110.1           110.3           0.000    
    149      4     44      8       110.1           110.3           0.000    
    150      5     44      8       110.1           110.3           0.000    
    151      4     44      7       110.1           110.3           0.000    
    152      5     44      7       110.1           110.3           0.000    
    153      4     44      6       110.1           110.3           0.000    
    154      5     44      6       110.1           110.3           0.000    
    155      4     44      5       110.1           110.3           0.000    
    156      5     44      5       110.1           110.3           0.000    
    157      4     44      4       110.1           110.3           0.000    
    158      5     44      4       110.1           110.3           0.000    
    159      4     44      3       110.1           110.3           0.000    
    160      5     44      3       110.1           110.3           0.000    
    161      4     45      3       110.1           110.3           0.000    
    162      5     45      3       110.1           110.3           0.000    
    163      4     45      2       110.1           110.3           0.000    
    164      5     45      2       110.1           110.3           0.000    
    165      4     45      1       110.1           110.3           0.000    
    166      5     45      1       110.1           110.3           0.000    


    166 TIME-VARIANT SPECIFIED-HEAD CELLS

 SOLVING FOR HEAD 


     4 CALLS TO PCG ROUTINE FOR TIME STEP   1 IN STRESS PERIOD  103
    72 TOTAL ITERATIONS

 MAXIMUM HEAD CHANGE FOR EACH ITERATION (1 INDICATES THE FIRST INNER ITERATION):

    HEAD CHANGE    HEAD CHANGE    HEAD CHANGE    HEAD CHANGE    HEAD CHANGE 
   LAYER,ROW,COL  LAYER,ROW,COL  LAYER,ROW,COL  LAYER,ROW,COL  LAYER,ROW,COL
 ---------------------------------------------------------------------------
  1  0.5457      0 -0.3040      0  0.1741      0 -0.1516      0  0.2009    
   (  5, 43,  5)  (  5, 35,  1)  (  5, 30,  2)  (  5, 41,  2)  (  5, 37,  1)
  0  0.1089      0  0.1287      0 -0.1418      0 -0.7997E-01  0 -0.6348E-01
   (  5, 39,  1)  (  5, 40,  1)  (  5, 37,  1)  (  5, 37,  6)  (  5, 40,  2)
  0 -0.5287E-01  0 -0.3069E-01  0  0.3984E-01  0 -0.3360E-01  0  0.2930E-01
   (  5, 36, 10)  (  5, 28,  2)  (  5, 33,  9)  (  5, 31,  9)  (  5, 36,  8)
  0 -0.1487E-01  0  0.1538E-01  0 -0.1229E-01  0 -0.9551E-02  0 -0.8911E-02
   (  5, 37,  1)  (  5, 34,  1)  (  5, 15,  1)  (  5, 30, 10)  (  5, 36,  7)
  0  0.4335E-02  0 -0.5779E-02  0  0.4485E-02  0 -0.4045E-02  0 -0.3885E-02
   (  5, 28,  1)  (  5, 32,  4)  (  5, 38,  2)  (  5, 36,  1)  (  5, 13,  1)
  0 -0.3093E-02  0  0.2026E-02  0 -0.1508E-02  0  0.1190E-02  0  0.9402E-03
   (  5, 37,  1)  (  5, 39,  2)  (  5, 35,  3)  (  5, 35,  1)  (  5, 36,  1)
  1 -0.4581E-03  0  0.6794E-03  0  0.6268E-03  0  0.5978E-03  0  0.4452E-03
   (  5, 27,  1)  (  5, 33,  6)  (  5, 37,  1)  (  5, 34,  3)  (  5, 27,  5)
  0  0.5962E-03  0 -0.3569E-03  0  0.2337E-03  0  0.2771E-03  0 -0.1657E-03
   (  5, 37,  1)  (  5, 34,  2)  (  5, 28, 10)  (  5, 40,  1)  (  5, 31,  9)
  0 -0.9774E-04  0 -0.2071E-03  0  0.1549E-03  0 -0.9130E-04  0  0.5897E-04
   (  5, 30,  1)  (  5, 41,  2)  (  5, 39,  1)  (  5, 40,  4)  (  5, 29, 12)
  0 -0.6634E-04  0 -0.4594E-04  0 -0.4188E-04  0 -0.3966E-04  0  0.2562E-04
   (  5, 29,  9)  (  5, 37,  4)  (  5, 34,  8)  (  5, 33,  3)  (  5, 31,  4)
  0 -0.2096E-04  0 -0.1941E-04  0  0.1966E-04  0 -0.1392E-04  0  0.1162E-04
   (  5, 31,  9)  (  5, 42,  1)  (  5, 38,  1)  (  5, 35,  2)  (  5, 36,  2)
  0 -0.9362E-05  0 -0.6698E-05  0  0.3295E-05  0  0.4952E-05  0 -0.4032E-05
   (  5, 37,  6)  (  5, 37,  1)  (  5, 28,  2)  (  5, 39,  1)  (  5, 36,  2)
  1  0.2601E-05  0 -0.1977E-05  0 -0.2427E-05  0  0.2398E-05  0  0.3113E-05
   (  5, 33,  2)  (  5, 40,  3)  (  5, 33,  3)  (  5, 36,  1)  (  5, 13,  2)
  0 -0.2746E-05  0  0.1495E-05  0  0.1407E-05  0 -0.1037E-05  0  0.1033E-05
   (  5, 13,  1)  (  5, 36,  1)  (  5, 36,  8)  (  5, 37,  6)  (  5, 32, 11)
  0 -0.6999E-06  1  0.3796E-06
   (  5, 31,  1)  (  5, 29,  1)

 MAXIMUM RESIDUAL FOR EACH ITERATION (1 INDICATES THE FIRST INNER ITERATION):

    RESIDUAL       RESIDUAL       RESIDUAL       RESIDUAL       RESIDUAL    
   LAYER,ROW,COL  LAYER,ROW,COL  LAYER,ROW,COL  LAYER,ROW,COL  LAYER,ROW,COL
 ---------------------------------------------------------------------------
  1 -0.2457E-02  0 -0.1840E-02  0 -0.1559E-02  0 -0.1402E-02  0 -0.1171E-02
   (  4, 44,  2)  (  4, 44,  2)  (  4, 35, 35)  (  4, 35, 35)  (  4, 35, 35)
  0 -0.9872E-03  0 -0.8298E-03  0 -0.6547E-03  0 -0.5198E-03  0  0.4124E-03
   (  3, 40, 27)  (  3, 40, 27)  (  3, 40, 27)  (  3, 40, 27)  (  4, 43,  4)
  0  0.3367E-03  0  0.3025E-03  0  0.2617E-03  0  0.2067E-03  0  0.1583E-03
   (  4, 43,  4)  (  4, 43,  4)  (  4, 43,  4)  (  4, 43,  4)  (  4, 43,  4)
  0  0.1393E-03  0  0.1247E-03  0  0.9946E-04  0  0.8054E-04  0  0.6069E-04
   (  4, 44,  2)  (  4, 44,  2)  (  4, 44,  2)  (  4, 44,  2)  (  4, 44,  2)
  0  0.5614E-04  0  0.4594E-04  0  0.3992E-04  0  0.3502E-04  0  0.2819E-04
   (  4, 44,  2)  (  4, 34, 35)  (  4, 34, 35)  (  4, 34, 35)  (  4, 34, 35)
  0  0.2304E-04  0  0.2033E-04  0  0.1668E-04  0  0.1464E-04  0  0.1035E-04
   (  4, 34, 35)  (  4, 34, 35)  (  4, 34, 35)  (  4, 34, 35)  (  4, 34, 35)
  1  0.1023E-04  0  0.9483E-05  0  0.7571E-05  0  0.6442E-05  0  0.5625E-05
   (  4, 34, 35)  (  4, 34, 35)  (  4, 34, 35)  (  4, 34, 35)  (  4, 34, 35)
  0  0.5009E-05  0  0.4241E-05  0  0.3725E-05  0  0.3125E-05  0  0.2672E-05
   (  4, 34, 35)  (  4, 34, 35)  (  4, 34, 35)  (  4, 34, 35)  (  4, 34, 35)
  0  0.2542E-05  0  0.2057E-05  0  0.1585E-05  0  0.1237E-05  0  0.8138E-06
   (  4, 34, 35)  (  4, 34, 35)  (  4, 34, 35)  (  4, 34, 35)  (  4, 34, 35)
  0 -0.5863E-06  0 -0.5241E-06  0 -0.4167E-06  0 -0.3235E-06  0 -0.2963E-06
   (  4, 35, 35)  (  4, 35, 35)  (  4, 35, 35)  (  4, 35, 35)  (  4, 35, 35)
  0 -0.2235E-06  0 -0.1742E-06  0 -0.1492E-06  0 -0.1216E-06  0 -0.8927E-07
   (  4, 35, 35)  (  4, 35, 35)  (  4, 35, 35)  (  4, 35, 35)  (  4, 35, 35)
  0 -0.6674E-07  0 -0.5186E-07  0 -0.4887E-07  0 -0.3799E-07  0 -0.3241E-07
   (  4, 35, 35)  (  3, 40, 27)  (  3, 40, 27)  (  3, 36, 32)  (  3, 36, 35)
  1 -0.3215E-07  0 -0.3137E-07  0 -0.2974E-07  0 -0.2802E-07  0 -0.2177E-07
   (  3, 36, 35)  (  3, 36, 35)  (  3, 36, 35)  (  3, 36, 35)  (  3, 36, 35)
  0 -0.1687E-07  0 -0.1524E-07  0 -0.1181E-07  0 -0.9694E-08  0 -0.7510E-08
   (  3, 36, 35)  (  3, 36, 35)  (  3, 36, 35)  (  3, 36, 35)  (  3, 36, 35)
  0 -0.6129E-08  1 -0.6104E-08
   (  3, 36, 35)  (  3, 36, 35)



 OUTPUT CONTROL FOR STRESS PERIOD  103   TIME STEP    1
    SAVE HEAD FOR ALL LAYERS
    SAVE DRAWDOWN FOR ALL LAYERS
    SAVE BUDGET
    PRINT BUDGET
 UBDSV1 SAVING "         STORAGE" ON UNIT   9 AT TIME STEP  1, STRESS PERIOD 103
 UBDSV2 SAVING "   CONSTANT HEAD" ON UNIT   9 AT TIME STEP  1, STRESS PERIOD 103
 UBDSV1 SAVING "FLOW RIGHT FACE " ON UNIT   9 AT TIME STEP  1, STRESS PERIOD 103
 UBDSV1 SAVING "FLOW FRONT FACE " ON UNIT   9 AT TIME STEP  1, STRESS PERIOD 103
 UBDSV1 SAVING "FLOW LOWER FACE " ON UNIT   9 AT TIME STEP  1, STRESS PERIOD 103
 UBDSV3 SAVING "        RECHARGE" ON UNIT   9 AT TIME STEP  1, STRESS PERIOD 103

 HEAD WILL BE SAVED ON UNIT   37 AT END OF TIME STEP    1, STRESS PERIOD  103

 DRAWDOWN WILL BE SAVED ON UNIT   38 AT END OF TIME STEP    1, STRESS PERIOD  103
1
  VOLUMETRIC BUDGET FOR ENTIRE MODEL AT END OF TIME STEP    1, STRESS PERIOD 103
  ------------------------------------------------------------------------------

     CUMULATIVE VOLUMES      L**3       RATES FOR THIS TIME STEP      L**3/T
     ------------------                 ------------------------

           IN:                                      IN:
           ---                                      ---
             STORAGE =       14805.1250               STORAGE =           0.0000
       CONSTANT HEAD =       26662.0020         CONSTANT HEAD =       3.9481E-03
            RECHARGE =        1261.8229              RECHARGE =       1.0213E-04

            TOTAL IN =       42728.9492              TOTAL IN =       4.0502E-03

          OUT:                                     OUT:
          ----                                     ----
             STORAGE =       12836.7393               STORAGE =       4.0502E-03
       CONSTANT HEAD =       29893.3965         CONSTANT HEAD =           0.0000
            RECHARGE =           0.0000              RECHARGE =           0.0000

           TOTAL OUT =       42730.1367             TOTAL OUT =       4.0502E-03

            IN - OUT =          -1.1875              IN - OUT =      -2.2817E-08

 PERCENT DISCREPANCY =          -0.00     PERCENT DISCREPANCY =          -0.00






         TIME SUMMARY AT END OF TIME STEP    1 IN STRESS PERIOD  103
                    SECONDS     MINUTES      HOURS       DAYS        YEARS
                    -----------------------------------------------------------
   TIME STEP LENGTH  86400.      1440.0      24.000      1.0000     2.73785E-03
 STRESS PERIOD TIME  86400.      1440.0      24.000      1.0000     2.73785E-03
         TOTAL TIME 1.23552E+07 2.05920E+05  3432.0      143.00     0.39151    
1
1
                            STRESS PERIOD NO.  104, LENGTH =   86400.00    
                            -----------------------------------------------

                              NUMBER OF TIME STEPS =     1

                               MULTIPLIER FOR DELT =     1.000

                            INITIAL TIME STEP SIZE =   86400.00    

 REUSING RECH FROM LAST STRESS PERIOD

 CHD NO.   LAYER   ROW   COL    START HEAD        END HEAD         IFACE           
 ----------------------------------------------------------------------------------
      1      4      3      1       110.3           110.3           0.000    
      2      5      3      1       110.3           110.3           0.000    
      3      4      3      2       110.3           110.3           0.000    
      4      5      3      2       110.3           110.3           0.000    
      5      4      3      3       110.3           110.3           0.000    
      6      5      3      3       110.3           110.3           0.000    
      7      4      3      4       110.3           110.3           0.000    
      8      5      3      4       110.3           110.3           0.000    
      9      4      3      5       110.3           110.3           0.000    
     10      5      3      5       110.3           110.3           0.000    
     11      4      3      6       110.3           110.3           0.000    
     12      5      3      6       110.3           110.3           0.000    
     13      4      3      7       110.3           110.3           0.000    
     14      5      3      7       110.3           110.3           0.000    
     15      4      3      8       110.3           110.3           0.000    
     16      5      3      8       110.3           110.3           0.000    
     17      4      2      8       110.3           110.3           0.000    
     18      5      2      8       110.3           110.3           0.000    
     19      4      2      9       110.3           110.3           0.000    
     20      5      2      9       110.3           110.3           0.000    
     21      4      2     10       110.3           110.3           0.000    
     22      5      2     10       110.3           110.3           0.000    
     23      4      2     11       110.3           110.3           0.000    
     24      5      2     11       110.3           110.3           0.000    
     25      4      2     12       110.3           110.3           0.000    
     26      5      2     12       110.3           110.3           0.000    
     27      4      2     13       110.3           110.3           0.000    
     28      5      2     13       110.3           110.3           0.000    
     29      4      2     14       110.3           110.3           0.000    
     30      5      2     14       110.3           110.3           0.000    
     31      4      2     15       110.3           110.3           0.000    
     32      5      2     15       110.3           110.3           0.000    
     33      4      2     16       110.3           110.3           0.000    
     34      5      2     16       110.3           110.3           0.000    
     35      4      2     17       110.3           110.3           0.000    
     36      5      2     17       110.3           110.3           0.000    
     37      4      2     18       110.3           110.3           0.000    
     38      5      2     18       110.3           110.3           0.000    
     39      4      2     19       110.3           110.3           0.000    
     40      5      2     19       110.3           110.3           0.000    
     41      4      2     20       110.3           110.3           0.000    
     42      5      2     20       110.3           110.3           0.000    
     43      4      2     21       110.3           110.3           0.000    
     44      5      2     21       110.3           110.3           0.000    
     45      4      2     22       110.3           110.3           0.000    
     46      5      2     22       110.3           110.3           0.000    
     47      4      2     23       110.3           110.3           0.000    
     48      5      2     23       110.3           110.3           0.000    
     49      4      2     24       110.3           110.3           0.000    
     50      5      2     24       110.3           110.3           0.000    
     51      4      2     25       110.3           110.3           0.000    
     52      5      2     25       110.3           110.3           0.000    
     53      4      2     26       110.3           110.3           0.000    
     54      5      2     26       110.3           110.3           0.000    
     55      4      1     26       110.3           110.3           0.000    
     56      5      1     26       110.3           110.3           0.000    
     57      4      1     27       110.3           110.3           0.000    
     58      5      1     27       110.3           110.3           0.000    
     59      4      1     28       110.3           110.3           0.000    
     60      5      1     28       110.3           110.3           0.000    
     61      4      1     29       110.3           110.3           0.000    
     62      5      1     29       110.3           110.3           0.000    
     63      4      1     30       110.3           110.3           0.000    
     64      5      1     30       110.3           110.3           0.000    
     65      4      1     31       110.3           110.3           0.000    
     66      5      1     31       110.3           110.3           0.000    
     67      4      1     32       110.3           110.3           0.000    
     68      5      1     32       110.3           110.3           0.000    
     69      4      1     33       110.3           110.3           0.000    
     70      5      1     33       110.3           110.3           0.000    
     71      4      1     34       110.3           110.3           0.000    
     72      5      1     34       110.3           110.3           0.000    
     73      4      1     35       110.3           110.3           0.000    
     74      5      1     35       110.3           110.3           0.000    
     75      4     36     35       110.3           110.7           0.000    
     76      5     36     35       110.3           110.7           0.000    
     77      4     35     34       110.3           110.7           0.000    
     78      5     35     34       110.3           110.7           0.000    
     79      4     36     34       110.3           110.7           0.000    
     80      5     36     34       110.3           110.7           0.000    
     81      4     36     33       110.3           110.7           0.000    
     82      5     36     33       110.3           110.7           0.000    
     83      4     36     32       110.3           110.7           0.000    
     84      5     36     32       110.3           110.7           0.000    
     85      4     37     32       110.3           110.7           0.000    
     86      5     37     32       110.3           110.7           0.000    
     87      4     37     31       110.3           110.7           0.000    
     88      5     37     31       110.3           110.7           0.000    
     89      4     38     31       110.3           110.7           0.000    
     90      5     38     31       110.3           110.7           0.000    
     91      4     38     30       110.3           110.7           0.000    
     92      5     38     30       110.3           110.7           0.000    
     93      4     39     30       110.3           110.7           0.000    
     94      5     39     30       110.3           110.7           0.000    
     95      4     39     29       110.3           110.7           0.000    
     96      5     39     29       110.3           110.7           0.000    
     97      4     40     29       110.3           110.7           0.000    
     98      5     40     29       110.3           110.7           0.000    
     99      4     40     28       110.3           110.7           0.000    
    100      5     40     28       110.3           110.7           0.000    
    101      4     40     27       110.3           110.7           0.000    
    102      5     40     27       110.3           110.7           0.000    
    103      4     41     27       110.3           110.7           0.000    
    104      5     41     27       110.3           110.7           0.000    
    105      4     41     26       110.3           110.7           0.000    
    106      5     41     26       110.3           110.7           0.000    
    107      4     41     25       110.3           110.7           0.000    
    108      5     41     25       110.3           110.7           0.000    
    109      4     41     24       110.3           110.7           0.000    
    110      5     41     24       110.3           110.7           0.000    
    111      4     41     23       110.3           110.7           0.000    
    112      5     41     23       110.3           110.7           0.000    
    113      4     41     22       110.3           110.7           0.000    
    114      5     41     22       110.3           110.7           0.000    
    115      4     42     22       110.3           110.7           0.000    
    116      5     42     22       110.3           110.7           0.000    
    117      4     42     21       110.3           110.7           0.000    
    118      5     42     21       110.3           110.7           0.000    
    119      4     42     20       110.3           110.7           0.000    
    120      5     42     20       110.3           110.7           0.000    
    121      4     42     19       110.3           110.7           0.000    
    122      5     42     19       110.3           110.7           0.000    
    123      4     43     18       110.3           110.7           0.000    
    124      5     43     18       110.3           110.7           0.000    
    125      4     42     18       110.3           110.7           0.000    
    126      5     42     18       110.3           110.7           0.000    
    127      4     42     17       110.3           110.7           0.000    
    128      5     42     17       110.3           110.7           0.000    
    129      4     42     16       110.3           110.7           0.000    
    130      5     42     16       110.3           110.7           0.000    
    131      4     42     15       110.3           110.7           0.000    
    132      5     42     15       110.3           110.7           0.000    
    133      4     43     15       110.3           110.7           0.000    
    134      5     43     15       110.3           110.7           0.000    
    135      4     43     14       110.3           110.7           0.000    
    136      5     43     14       110.3           110.7           0.000    
    137      4     43     13       110.3           110.6           0.000    
    138      5     43     13       110.3           110.6           0.000    
    139      4     43     12       110.3           110.6           0.000    
    140      5     43     12       110.3           110.6           0.000    
    141      4     43     11       110.3           110.6           0.000    
    142      5     43     11       110.3           110.6           0.000    
    143      4     43     10       110.3           110.6           0.000    
    144      5     43     10       110.3           110.6           0.000    
    145      4     44     10       110.3           110.6           0.000    
    146      5     44     10       110.3           110.6           0.000    
    147      4     44      9       110.3           110.6           0.000    
    148      5     44      9       110.3           110.6           0.000    
    149      4     44      8       110.3           110.6           0.000    
    150      5     44      8       110.3           110.6           0.000    
    151      4     44      7       110.3           110.6           0.000    
    152      5     44      7       110.3           110.6           0.000    
    153      4     44      6       110.3           110.6           0.000    
    154      5     44      6       110.3           110.6           0.000    
    155      4     44      5       110.3           110.6           0.000    
    156      5     44      5       110.3           110.6           0.000    
    157      4     44      4       110.3           110.6           0.000    
    158      5     44      4       110.3           110.6           0.000    
    159      4     44      3       110.3           110.6           0.000    
    160      5     44      3       110.3           110.6           0.000    
    161      4     45      3       110.3           110.6           0.000    
    162      5     45      3       110.3           110.6           0.000    
    163      4     45      2       110.3           110.6           0.000    
    164      5     45      2       110.3           110.6           0.000    
    165      4     45      1       110.3           110.6           0.000    
    166      5     45      1       110.3           110.6           0.000    


    166 TIME-VARIANT SPECIFIED-HEAD CELLS

 SOLVING FOR HEAD 


     4 CALLS TO PCG ROUTINE FOR TIME STEP   1 IN STRESS PERIOD  104
    78 TOTAL ITERATIONS

 MAXIMUM HEAD CHANGE FOR EACH ITERATION (1 INDICATES THE FIRST INNER ITERATION):

    HEAD CHANGE    HEAD CHANGE    HEAD CHANGE    HEAD CHANGE    HEAD CHANGE 
   LAYER,ROW,COL  LAYER,ROW,COL  LAYER,ROW,COL  LAYER,ROW,COL  LAYER,ROW,COL
 ---------------------------------------------------------------------------
  1   1.063      0 -0.5777      0  0.3352      0 -0.2960      0  0.3747    
   (  5, 43,  5)  (  5, 35,  1)  (  5, 30,  2)  (  5, 41,  2)  (  5, 37,  1)
  0  0.2186      0  0.2508      0 -0.2701      0 -0.1521      0 -0.1211    
   (  5, 39,  1)  (  5, 40,  1)  (  5, 37,  1)  (  5, 37,  6)  (  5, 40,  2)
  0 -0.1096      0  0.9709E-01  0 -0.4867E-01  0 -0.6296E-01  0  0.5033E-01
   (  5, 35,  9)  (  5, 33,  9)  (  5, 29,  3)  (  5, 30,  9)  (  5, 36,  9)
  0  0.2942E-01  0 -0.2765E-01  0 -0.2446E-01  0 -0.1799E-01  0 -0.1711E-01
   (  5, 35,  2)  (  5, 37,  1)  (  5, 15,  1)  (  5, 30, 10)  (  5, 36,  7)
  0 -0.1076E-01  0 -0.1306E-01  0  0.5426E-02  0  0.1064E-01  0 -0.7974E-02
   (  5, 38,  3)  (  5, 32,  4)  (  5, 36,  4)  (  5, 13,  1)  (  5, 13,  1)
  0  0.4025E-02  0 -0.3253E-02  0 -0.2858E-02  0  0.2052E-02  0  0.1731E-02
   (  5, 12,  1)  (  5, 38,  1)  (  5, 35,  3)  (  5, 35,  1)  (  5, 12,  1)
  1 -0.2025E-02  0  0.2087E-02  0 -0.2516E-02  0  0.1959E-02  0  0.1182E-02
   (  5, 33,  1)  (  5, 30,  2)  (  5, 38,  4)  (  5, 34,  2)  (  5, 30,  6)
  0  0.1198E-02  0 -0.1068E-02  0  0.7614E-03  0 -0.6368E-03  0  0.6007E-03
   (  5, 39,  5)  (  5, 37,  1)  (  5, 39,  1)  (  5, 37,  1)  (  5, 39,  1)
  0 -0.4973E-03  0  0.1972E-03  0 -0.2909E-03  0 -0.2544E-03  0 -0.1606E-03
   (  5, 41,  2)  (  5, 30,  2)  (  5, 27,  2)  (  5, 14,  1)  (  5, 32,  4)
  0  0.1807E-03  0 -0.1201E-03  0  0.9478E-04  0  0.1158E-03  0  0.6236E-04
   (  5, 14,  1)  (  5, 37,  4)  (  5, 35,  2)  (  5, 38,  8)  (  5, 28,  9)
  0  0.4090E-04  0 -0.4904E-04  0  0.5187E-04  0  0.4434E-04  0 -0.3332E-04
   (  5, 31,  3)  (  5, 36,  1)  (  5, 39,  5)  (  5, 39,  1)  (  5, 40,  1)
  0  0.1952E-04  0  0.1324E-04  0 -0.1367E-04  0 -0.1273E-04  0  0.8160E-05
   (  5, 42,  6)  (  5, 41,  4)  (  5, 38,  1)  (  5, 32,  1)  (  5, 37,  6)
  1 -0.7274E-05  0  0.1689E-04  0 -0.1566E-04  0  0.1392E-04  0  0.8292E-05
   (  5, 28,  3)  (  5, 31,  1)  (  5, 36,  4)  (  2, 43,  7)  (  5, 20,  2)
  0 -0.5128E-05  0  0.5738E-05  0  0.4067E-05  0  0.3198E-05  0  0.4253E-05
   (  5, 37,  2)  (  5, 28,  7)  (  5, 36,  7)  (  5, 37,  2)  (  5, 32, 11)
  0  0.2038E-05  0  0.2220E-05  0 -0.2920E-05  0  0.2070E-05  0  0.1114E-05
   (  5, 35,  6)  (  5, 41,  2)  (  5, 40,  1)  (  5, 33,  8)  (  5, 35,  4)
  0 -0.1114E-05  0  0.5792E-06  1 -0.4630E-06
   (  5, 36,  2)  (  5, 29, 10)  (  5, 26, 11)

 MAXIMUM RESIDUAL FOR EACH ITERATION (1 INDICATES THE FIRST INNER ITERATION):

    RESIDUAL       RESIDUAL       RESIDUAL       RESIDUAL       RESIDUAL    
   LAYER,ROW,COL  LAYER,ROW,COL  LAYER,ROW,COL  LAYER,ROW,COL  LAYER,ROW,COL
 ---------------------------------------------------------------------------
  1 -0.5168E-02  0 -0.3923E-02  0 -0.3298E-02  0 -0.2977E-02  0 -0.2523E-02
   (  4, 44,  2)  (  4, 44,  2)  (  4, 44,  2)  (  4, 35, 35)  (  4, 35, 35)
  0 -0.2134E-02  0 -0.1787E-02  0 -0.1421E-02  0 -0.1136E-02  0 -0.8690E-03
   (  4, 35, 35)  (  3, 40, 27)  (  3, 40, 27)  (  3, 40, 27)  (  3, 40, 27)
  0  0.6670E-03  0  0.5720E-03  0  0.5303E-03  0  0.4289E-03  0  0.3321E-03
   (  3, 35, 35)  (  3, 35, 35)  (  3, 35, 35)  (  3, 35, 35)  (  3, 35, 35)
  0  0.3001E-03  0  0.2429E-03  0  0.1820E-03  0  0.1505E-03  0  0.1258E-03
   (  3, 35, 35)  (  4, 43,  4)  (  4, 44,  2)  (  4, 44,  2)  (  4, 34, 35)
  0  0.1167E-03  0  0.1004E-03  0  0.9613E-04  0  0.7676E-04  0  0.6121E-04
   (  4, 34, 35)  (  4, 34, 35)  (  4, 34, 35)  (  4, 34, 35)  (  4, 34, 35)
  0  0.4722E-04  0  0.4107E-04  0  0.3357E-04  0  0.3129E-04  0  0.2212E-04
   (  4, 34, 35)  (  4, 34, 35)  (  4, 34, 35)  (  4, 34, 35)  (  4, 34, 35)
  1  0.2024E-04  0  0.1915E-04  0  0.1558E-04  0  0.1397E-04  0  0.1274E-04
   (  4, 34, 35)  (  4, 34, 35)  (  4, 34, 35)  (  4, 34, 35)  (  4, 34, 35)
  0  0.1114E-04  0  0.1037E-04  0  0.9423E-05  0  0.8437E-05  0  0.7112E-05
   (  4, 34, 35)  (  4, 34, 35)  (  4, 34, 35)  (  4, 34, 35)  (  4, 34, 35)
  0  0.6054E-05  0  0.5725E-05  0  0.4441E-05  0  0.3355E-05  0  0.2313E-05
   (  4, 34, 35)  (  4, 34, 35)  (  4, 34, 35)  (  4, 34, 35)  (  4, 34, 35)
  0 -0.1548E-05  0 -0.1327E-05  0 -0.1141E-05  0 -0.9277E-06  0 -0.7623E-06
   (  4, 35, 35)  (  4, 35, 35)  (  4, 35, 35)  (  4, 35, 35)  (  4, 35, 35)
  0 -0.7213E-06  0 -0.6525E-06  0 -0.5375E-06  0 -0.3999E-06  0 -0.2868E-06
   (  4, 35, 35)  (  4, 35, 35)  (  4, 35, 35)  (  4, 35, 35)  (  3, 36, 32)
  0 -0.2169E-06  0 -0.1884E-06  0 -0.1506E-06  0 -0.1308E-06  0 -0.1141E-06
   (  3, 36, 32)  (  3, 36, 32)  (  3, 36, 32)  (  3, 36, 32)  (  3, 36, 32)
  1 -0.1133E-06  0 -0.1001E-06  0 -0.8995E-07  0 -0.6562E-07  0 -0.5521E-07
   (  3, 36, 32)  (  3, 36, 32)  (  3, 36, 32)  (  3, 36, 32)  (  3, 36, 32)
  0 -0.4979E-07  0 -0.4536E-07  0 -0.4049E-07  0 -0.3670E-07  0 -0.3136E-07
   (  3, 36, 32)  (  3, 36, 32)  (  3, 36, 32)  (  3, 36, 32)  (  3, 36, 32)
  0 -0.2930E-07  0 -0.2566E-07  0 -0.2097E-07  0 -0.1678E-07  0 -0.1437E-07
   (  3, 36, 32)  (  3, 36, 32)  (  3, 36, 32)  (  3, 36, 32)  (  3, 36, 32)
  0 -0.1244E-07  0 -0.1063E-07  1 -0.1026E-07
   (  3, 36, 32)  (  3, 36, 32)  (  3, 36, 32)



 OUTPUT CONTROL FOR STRESS PERIOD  104   TIME STEP    1
    SAVE HEAD FOR ALL LAYERS
    SAVE DRAWDOWN FOR ALL LAYERS
    SAVE BUDGET
    PRINT BUDGET
 UBDSV1 SAVING "         STORAGE" ON UNIT   9 AT TIME STEP  1, STRESS PERIOD 104
 UBDSV2 SAVING "   CONSTANT HEAD" ON UNIT   9 AT TIME STEP  1, STRESS PERIOD 104
 UBDSV1 SAVING "FLOW RIGHT FACE " ON UNIT   9 AT TIME STEP  1, STRESS PERIOD 104
 UBDSV1 SAVING "FLOW FRONT FACE " ON UNIT   9 AT TIME STEP  1, STRESS PERIOD 104
 UBDSV1 SAVING "FLOW LOWER FACE " ON UNIT   9 AT TIME STEP  1, STRESS PERIOD 104
 UBDSV3 SAVING "        RECHARGE" ON UNIT   9 AT TIME STEP  1, STRESS PERIOD 104

 HEAD WILL BE SAVED ON UNIT   37 AT END OF TIME STEP    1, STRESS PERIOD  104

 DRAWDOWN WILL BE SAVED ON UNIT   38 AT END OF TIME STEP    1, STRESS PERIOD  104
1
  VOLUMETRIC BUDGET FOR ENTIRE MODEL AT END OF TIME STEP    1, STRESS PERIOD 104
  ------------------------------------------------------------------------------

     CUMULATIVE VOLUMES      L**3       RATES FOR THIS TIME STEP      L**3/T
     ------------------                 ------------------------

           IN:                                      IN:
           ---                                      ---
             STORAGE =       14805.1250               STORAGE =           0.0000
       CONSTANT HEAD =       27384.7148         CONSTANT HEAD =       8.3647E-03
            RECHARGE =        1270.6469              RECHARGE =       1.0213E-04

            TOTAL IN =       43460.4883              TOTAL IN =       8.4669E-03

          OUT:                                     OUT:
          ----                                     ----
             STORAGE =       13535.6943               STORAGE =       8.0898E-03
       CONSTANT HEAD =       29925.9805         CONSTANT HEAD =       3.7713E-04
            RECHARGE =           0.0000              RECHARGE =           0.0000

           TOTAL OUT =       43461.6758             TOTAL OUT =       8.4669E-03

            IN - OUT =          -1.1875              IN - OUT =      -2.7008E-08

 PERCENT DISCREPANCY =          -0.00     PERCENT DISCREPANCY =          -0.00






         TIME SUMMARY AT END OF TIME STEP    1 IN STRESS PERIOD  104
                    SECONDS     MINUTES      HOURS       DAYS        YEARS
                    -----------------------------------------------------------
   TIME STEP LENGTH  86400.      1440.0      24.000      1.0000     2.73785E-03
 STRESS PERIOD TIME  86400.      1440.0      24.000      1.0000     2.73785E-03
         TOTAL TIME 1.24416E+07 2.07360E+05  3456.0      144.00     0.39425    
1
1
                            STRESS PERIOD NO.  105, LENGTH =   259200.0    
                            -----------------------------------------------

                              NUMBER OF TIME STEPS =     3

                               MULTIPLIER FOR DELT =     1.000

                            INITIAL TIME STEP SIZE =   86400.00    

 REUSING RECH FROM LAST STRESS PERIOD

 CHD NO.   LAYER   ROW   COL    START HEAD        END HEAD         IFACE           
 ----------------------------------------------------------------------------------
      1      4      3      1       110.3           110.7           0.000    
      2      5      3      1       110.3           110.7           0.000    
      3      4      3      2       110.3           110.7           0.000    
      4      5      3      2       110.3           110.7           0.000    
      5      4      3      3       110.3           110.7           0.000    
      6      5      3      3       110.3           110.7           0.000    
      7      4      3      4       110.3           110.7           0.000    
      8      5      3      4       110.3           110.7           0.000    
      9      4      3      5       110.3           110.7           0.000    
     10      5      3      5       110.3           110.7           0.000    
     11      4      3      6       110.3           110.7           0.000    
     12      5      3      6       110.3           110.7           0.000    
     13      4      3      7       110.3           110.7           0.000    
     14      5      3      7       110.3           110.7           0.000    
     15      4      3      8       110.3           110.7           0.000    
     16      5      3      8       110.3           110.7           0.000    
     17      4      2      8       110.3           110.7           0.000    
     18      5      2      8       110.3           110.7           0.000    
     19      4      2      9       110.3           110.7           0.000    
     20      5      2      9       110.3           110.7           0.000    
     21      4      2     10       110.3           110.7           0.000    
     22      5      2     10       110.3           110.7           0.000    
     23      4      2     11       110.3           110.7           0.000    
     24      5      2     11       110.3           110.7           0.000    
     25      4      2     12       110.3           110.7           0.000    
     26      5      2     12       110.3           110.7           0.000    
     27      4      2     13       110.3           110.7           0.000    
     28      5      2     13       110.3           110.7           0.000    
     29      4      2     14       110.3           110.7           0.000    
     30      5      2     14       110.3           110.7           0.000    
     31      4      2     15       110.3           110.7           0.000    
     32      5      2     15       110.3           110.7           0.000    
     33      4      2     16       110.3           110.7           0.000    
     34      5      2     16       110.3           110.7           0.000    
     35      4      2     17       110.3           110.7           0.000    
     36      5      2     17       110.3           110.7           0.000    
     37      4      2     18       110.3           110.7           0.000    
     38      5      2     18       110.3           110.7           0.000    
     39      4      2     19       110.3           110.7           0.000    
     40      5      2     19       110.3           110.7           0.000    
     41      4      2     20       110.3           110.7           0.000    
     42      5      2     20       110.3           110.7           0.000    
     43      4      2     21       110.3           110.7           0.000    
     44      5      2     21       110.3           110.7           0.000    
     45      4      2     22       110.3           110.7           0.000    
     46      5      2     22       110.3           110.7           0.000    
     47      4      2     23       110.3           110.7           0.000    
     48      5      2     23       110.3           110.7           0.000    
     49      4      2     24       110.3           110.7           0.000    
     50      5      2     24       110.3           110.7           0.000    
     51      4      2     25       110.3           110.7           0.000    
     52      5      2     25       110.3           110.7           0.000    
     53      4      2     26       110.3           110.7           0.000    
     54      5      2     26       110.3           110.7           0.000    
     55      4      1     26       110.3           110.7           0.000    
     56      5      1     26       110.3           110.7           0.000    
     57      4      1     27       110.3           110.7           0.000    
     58      5      1     27       110.3           110.7           0.000    
     59      4      1     28       110.3           110.7           0.000    
     60      5      1     28       110.3           110.7           0.000    
     61      4      1     29       110.3           110.7           0.000    
     62      5      1     29       110.3           110.7           0.000    
     63      4      1     30       110.3           110.7           0.000    
     64      5      1     30       110.3           110.7           0.000    
     65      4      1     31       110.3           110.7           0.000    
     66      5      1     31       110.3           110.7           0.000    
     67      4      1     32       110.3           110.7           0.000    
     68      5      1     32       110.3           110.7           0.000    
     69      4      1     33       110.3           110.7           0.000    
     70      5      1     33       110.3           110.7           0.000    
     71      4      1     34       110.3           110.7           0.000    
     72      5      1     34       110.3           110.7           0.000    
     73      4      1     35       110.3           110.7           0.000    
     74      5      1     35       110.3           110.7           0.000    
     75      4     36     35       110.7           110.9           0.000    
     76      5     36     35       110.7           110.9           0.000    
     77      4     35     34       110.7           110.9           0.000    
     78      5     35     34       110.7           110.9           0.000    
     79      4     36     34       110.7           110.9           0.000    
     80      5     36     34       110.7           110.9           0.000    
     81      4     36     33       110.7           110.9           0.000    
     82      5     36     33       110.7           110.9           0.000    
     83      4     36     32       110.7           110.9           0.000    
     84      5     36     32       110.7           110.9           0.000    
     85      4     37     32       110.7           110.9           0.000    
     86      5     37     32       110.7           110.9           0.000    
     87      4     37     31       110.7           110.9           0.000    
     88      5     37     31       110.7           110.9           0.000    
     89      4     38     31       110.7           110.9           0.000    
     90      5     38     31       110.7           110.9           0.000    
     91      4     38     30       110.7           110.9           0.000    
     92      5     38     30       110.7           110.9           0.000    
     93      4     39     30       110.7           110.9           0.000    
     94      5     39     30       110.7           110.9           0.000    
     95      4     39     29       110.7           110.9           0.000    
     96      5     39     29       110.7           110.9           0.000    
     97      4     40     29       110.7           110.9           0.000    
     98      5     40     29       110.7           110.9           0.000    
     99      4     40     28       110.7           110.9           0.000    
    100      5     40     28       110.7           110.9           0.000    
    101      4     40     27       110.7           110.9           0.000    
    102      5     40     27       110.7           110.9           0.000    
    103      4     41     27       110.7           110.9           0.000    
    104      5     41     27       110.7           110.9           0.000    
    105      4     41     26       110.7           110.9           0.000    
    106      5     41     26       110.7           110.9           0.000    
    107      4     41     25       110.7           110.9           0.000    
    108      5     41     25       110.7           110.9           0.000    
    109      4     41     24       110.7           110.9           0.000    
    110      5     41     24       110.7           110.9           0.000    
    111      4     41     23       110.7           110.9           0.000    
    112      5     41     23       110.7           110.9           0.000    
    113      4     41     22       110.7           110.9           0.000    
    114      5     41     22       110.7           110.9           0.000    
    115      4     42     22       110.7           110.9           0.000    
    116      5     42     22       110.7           110.9           0.000    
    117      4     42     21       110.7           110.9           0.000    
    118      5     42     21       110.7           110.9           0.000    
    119      4     42     20       110.7           110.9           0.000    
    120      5     42     20       110.7           110.9           0.000    
    121      4     42     19       110.7           110.9           0.000    
    122      5     42     19       110.7           110.9           0.000    
    123      4     43     18       110.7           110.9           0.000    
    124      5     43     18       110.7           110.9           0.000    
    125      4     42     18       110.7           110.9           0.000    
    126      5     42     18       110.7           110.9           0.000    
    127      4     42     17       110.7           110.9           0.000    
    128      5     42     17       110.7           110.9           0.000    
    129      4     42     16       110.7           110.9           0.000    
    130      5     42     16       110.7           110.9           0.000    
    131      4     42     15       110.7           110.9           0.000    
    132      5     42     15       110.7           110.9           0.000    
    133      4     43     15       110.7           110.9           0.000    
    134      5     43     15       110.7           110.9           0.000    
    135      4     43     14       110.7           110.9           0.000    
    136      5     43     14       110.7           110.9           0.000    
    137      4     43     13       110.6           110.9           0.000    
    138      5     43     13       110.6           110.9           0.000    
    139      4     43     12       110.6           110.9           0.000    
    140      5     43     12       110.6           110.9           0.000    
    141      4     43     11       110.6           110.9           0.000    
    142      5     43     11       110.6           110.9           0.000    
    143      4     43     10       110.6           110.9           0.000    
    144      5     43     10       110.6           110.9           0.000    
    145      4     44     10       110.6           110.9           0.000    
    146      5     44     10       110.6           110.9           0.000    
    147      4     44      9       110.6           110.9           0.000    
    148      5     44      9       110.6           110.9           0.000    
    149      4     44      8       110.6           110.9           0.000    
    150      5     44      8       110.6           110.9           0.000    
    151      4     44      7       110.6           110.9           0.000    
    152      5     44      7       110.6           110.9           0.000    
    153      4     44      6       110.6           110.9           0.000    
    154      5     44      6       110.6           110.9           0.000    
    155      4     44      5       110.6           110.9           0.000    
    156      5     44      5       110.6           110.9           0.000    
    157      4     44      4       110.6           110.9           0.000    
    158      5     44      4       110.6           110.9           0.000    
    159      4     44      3       110.6           110.9           0.000    
    160      5     44      3       110.6           110.9           0.000    
    161      4     45      3       110.6           110.9           0.000    
    162      5     45      3       110.6           110.9           0.000    
    163      4     45      2       110.6           110.9           0.000    
    164      5     45      2       110.6           110.9           0.000    
    165      4     45      1       110.6           110.9           0.000    
    166      5     45      1       110.6           110.9           0.000    


    166 TIME-VARIANT SPECIFIED-HEAD CELLS

 SOLVING FOR HEAD 


     4 CALLS TO PCG ROUTINE FOR TIME STEP   1 IN STRESS PERIOD  105
    72 TOTAL ITERATIONS

 MAXIMUM HEAD CHANGE FOR EACH ITERATION (1 INDICATES THE FIRST INNER ITERATION):

    HEAD CHANGE    HEAD CHANGE    HEAD CHANGE    HEAD CHANGE    HEAD CHANGE 
   LAYER,ROW,COL  LAYER,ROW,COL  LAYER,ROW,COL  LAYER,ROW,COL  LAYER,ROW,COL
 ---------------------------------------------------------------------------
  1  0.3600      0 -0.1832      0 -0.1354      0  0.9910E-01  0  0.1113    
   (  5, 43,  5)  (  5, 34,  1)  (  5, 39,  2)  (  5, 34,  2)  (  5, 37,  1)
  0  0.8414E-01  0  0.6865E-01  0 -0.7488E-01  0 -0.4877E-01  0 -0.3475E-01
   (  5, 39,  1)  (  5, 40,  1)  (  5, 37,  1)  (  5, 37,  6)  (  5, 40,  1)
  0 -0.3367E-01  0 -0.1750E-01  0  0.3504E-01  0 -0.2174E-01  0  0.1340E-01
   (  5, 35, 10)  (  5, 30,  3)  (  5, 32,  9)  (  5, 30,  9)  (  5, 36,  8)
  0 -0.8449E-02  0  0.1022E-01  0 -0.8327E-02  0  0.5585E-02  0 -0.5887E-02
   (  5, 35,  4)  (  5, 34,  1)  (  5, 15,  1)  (  5, 38,  7)  (  5, 38,  4)
  0  0.3045E-02  0 -0.3340E-02  0  0.3244E-02  0  0.3039E-02  0 -0.2378E-02
   (  5, 28,  1)  (  5, 32,  4)  (  5, 34,  7)  (  5, 14,  2)  (  5, 13,  1)
  0 -0.1667E-02  0  0.1143E-02  0  0.8899E-03  0 -0.7098E-03  0 -0.4531E-03
   (  5, 37,  1)  (  5, 39,  2)  (  5, 35,  1)  (  5, 35,  3)  (  5, 31,  2)
  1  0.4776E-03  0  0.6429E-03  0  0.5974E-03  0 -0.5843E-03  0  0.5350E-03
   (  5, 30,  1)  (  5, 12,  1)  (  5, 27,  4)  (  5, 39,  1)  (  5, 37,  1)
  0  0.4412E-03  0 -0.3327E-03  0  0.3295E-03  0 -0.1771E-03  0  0.1774E-03
   (  5, 13,  1)  (  5, 37,  2)  (  5, 39,  1)  (  5, 37,  1)  (  5, 39,  2)
  0 -0.1262E-03  0  0.1363E-03  0  0.1633E-03  0 -0.1186E-03  0  0.8917E-04
   (  5, 31,  3)  (  5, 33,  1)  (  5, 39,  1)  (  5, 41,  2)  (  5, 34,  9)
  0  0.6220E-04  0 -0.7101E-04  0  0.3870E-04  0 -0.4850E-04  0  0.2213E-04
   (  5, 36,  1)  (  5, 37,  4)  (  5, 30,  8)  (  5, 30,  9)  (  5, 31,  1)
  0 -0.3445E-04  0  0.2674E-04  0  0.1222E-04  0  0.1572E-04  0 -0.1464E-04
   (  5, 37,  7)  (  5, 38,  6)  (  5, 32,  4)  (  5, 36,  2)  (  5, 40,  2)
  0  0.9928E-05  0 -0.6366E-05  0  0.5477E-05  0 -0.4400E-05  0  0.2246E-05
   (  5, 42,  1)  (  5, 32,  1)  (  5, 37,  2)  (  5, 39,  3)  (  5, 32,  5)
  1 -0.2220E-05  0  0.3060E-05  0 -0.3058E-05  0  0.2875E-05  0  0.2209E-05
   (  5, 30,  2)  (  5, 38,  2)  (  5, 36,  2)  (  5, 34,  3)  (  5, 31,  8)
  0 -0.1759E-05  0 -0.1456E-05  0  0.1528E-05  0  0.1011E-05  0  0.1238E-05
   (  5, 13,  1)  (  5, 37,  2)  (  5, 14,  1)  (  5, 30,  2)  (  5, 39,  8)
  0  0.6840E-06  1 -0.5420E-06
   (  5, 27,  1)  (  5, 30,  3)

 MAXIMUM RESIDUAL FOR EACH ITERATION (1 INDICATES THE FIRST INNER ITERATION):

    RESIDUAL       RESIDUAL       RESIDUAL       RESIDUAL       RESIDUAL    
   LAYER,ROW,COL  LAYER,ROW,COL  LAYER,ROW,COL  LAYER,ROW,COL  LAYER,ROW,COL
 ---------------------------------------------------------------------------
  1 -0.9556E-03  0 -0.7963E-03  0 -0.7316E-03  0 -0.6448E-03  0 -0.5360E-03
   (  3,  3,  1)  (  4, 35, 35)  (  4, 35, 35)  (  4, 35, 35)  (  3,  3,  1)
  0 -0.4562E-03  0  0.4125E-03  0  0.3540E-03  0  0.2884E-03  0  0.2384E-03
   (  3,  3,  1)  (  4, 43,  6)  (  4, 43,  5)  (  4, 43,  4)  (  4, 43,  4)
  0  0.1892E-03  0  0.1780E-03  0  0.1495E-03  0  0.1246E-03  0  0.1021E-03
   (  4, 43,  4)  (  4, 43,  4)  (  4, 43,  4)  (  4, 44,  2)  (  4, 44,  2)
  0  0.9399E-04  0  0.7822E-04  0  0.6148E-04  0  0.4895E-04  0  0.3875E-04
   (  4, 44,  2)  (  4, 44,  2)  (  4, 44,  2)  (  4, 44,  2)  (  4, 44,  2)
  0  0.3594E-04  0  0.3115E-04  0  0.2477E-04  0  0.1752E-04  0  0.1166E-04
   (  4, 44,  2)  (  4, 44,  2)  (  4, 44,  2)  (  4, 44,  2)  (  4, 44,  2)
  0  0.9092E-05  0  0.7468E-05  0  0.6072E-05  0  0.5031E-05  0  0.4718E-05
   (  4, 34, 35)  (  4, 34, 35)  (  4, 34, 35)  (  4, 34, 35)  (  4, 34, 35)
  1  0.4682E-05  0  0.4189E-05  0  0.3840E-05  0  0.3101E-05  0  0.2771E-05
   (  4, 34, 35)  (  4, 34, 35)  (  4, 34, 35)  (  4, 34, 35)  (  4, 34, 35)
  0  0.2427E-05  0  0.2292E-05  0  0.1972E-05  0  0.1719E-05  0  0.1441E-05
   (  4, 34, 35)  (  4, 34, 35)  (  4, 34, 35)  (  4, 34, 35)  (  4, 34, 35)
  0  0.1328E-05  0 -0.1101E-05  0 -0.8790E-06  0 -0.6795E-06  0 -0.5391E-06
   (  4, 34, 35)  (  3,  3,  1)  (  3,  3,  1)  (  3,  3,  1)  (  3,  3,  1)
  0 -0.4851E-06  0 -0.3527E-06  0 -0.2482E-06  0 -0.1878E-06  0 -0.1761E-06
   (  3,  3,  1)  (  3,  3,  1)  (  3,  3,  1)  (  3,  3,  1)  (  3,  3,  1)
  0 -0.1405E-06  0 -0.1089E-06  0 -0.8645E-07  0 -0.7428E-07  0 -0.5950E-07
   (  3,  3,  1)  (  3,  3,  1)  (  3,  3,  1)  (  3,  3,  1)  (  3,  3,  1)
  0 -0.4313E-07  0 -0.3532E-07  0 -0.2913E-07  0 -0.2630E-07  0 -0.2527E-07
   (  3,  3,  1)  (  3,  3,  1)  (  3, 41, 22)  (  3, 36, 32)  (  3, 36, 32)
  1 -0.2484E-07  0 -0.2382E-07  0 -0.2213E-07  0 -0.2085E-07  0 -0.1728E-07
   (  3, 36, 32)  (  3, 36, 32)  (  3,  3,  1)  (  3,  3,  1)  (  3,  3,  1)
  0 -0.1410E-07  0 -0.1290E-07  0 -0.1082E-07  0 -0.8758E-08  0 -0.7001E-08
   (  3,  3,  1)  (  3,  3,  1)  (  3,  3,  1)  (  3,  3,  1)  (  3,  3,  1)
  0 -0.6469E-08  1 -0.6446E-08
   (  3,  3,  1)  (  3,  3,  1)



 OUTPUT CONTROL FOR STRESS PERIOD  105   TIME STEP    1
    SAVE HEAD FOR ALL LAYERS
    SAVE DRAWDOWN FOR ALL LAYERS
    SAVE BUDGET
    PRINT BUDGET
 UBDSV1 SAVING "         STORAGE" ON UNIT   9 AT TIME STEP  1, STRESS PERIOD 105
 UBDSV2 SAVING "   CONSTANT HEAD" ON UNIT   9 AT TIME STEP  1, STRESS PERIOD 105
 UBDSV1 SAVING "FLOW RIGHT FACE " ON UNIT   9 AT TIME STEP  1, STRESS PERIOD 105
 UBDSV1 SAVING "FLOW FRONT FACE " ON UNIT   9 AT TIME STEP  1, STRESS PERIOD 105
 UBDSV1 SAVING "FLOW LOWER FACE " ON UNIT   9 AT TIME STEP  1, STRESS PERIOD 105
 UBDSV3 SAVING "        RECHARGE" ON UNIT   9 AT TIME STEP  1, STRESS PERIOD 105

 HEAD WILL BE SAVED ON UNIT   37 AT END OF TIME STEP    1, STRESS PERIOD  105

 DRAWDOWN WILL BE SAVED ON UNIT   38 AT END OF TIME STEP    1, STRESS PERIOD  105
1
  VOLUMETRIC BUDGET FOR ENTIRE MODEL AT END OF TIME STEP    1, STRESS PERIOD 105
  ------------------------------------------------------------------------------

     CUMULATIVE VOLUMES      L**3       RATES FOR THIS TIME STEP      L**3/T
     ------------------                 ------------------------

           IN:                                      IN:
           ---                                      ---
             STORAGE =       14805.1250               STORAGE =           0.0000
       CONSTANT HEAD =       27872.6211         CONSTANT HEAD =       5.6471E-03
            RECHARGE =        1279.4708              RECHARGE =       1.0213E-04

            TOTAL IN =       43957.2188              TOTAL IN =       5.7492E-03

          OUT:                                     OUT:
          ----                                     ----
             STORAGE =       13998.9053               STORAGE =       5.3612E-03
       CONSTANT HEAD =       29959.4980         CONSTANT HEAD =       3.8793E-04
            RECHARGE =           0.0000              RECHARGE =           0.0000

           TOTAL OUT =       43958.4023             TOTAL OUT =       5.7492E-03

            IN - OUT =          -1.1836              IN - OUT =       2.6543E-08

 PERCENT DISCREPANCY =          -0.00     PERCENT DISCREPANCY =           0.00






         TIME SUMMARY AT END OF TIME STEP    1 IN STRESS PERIOD  105
                    SECONDS     MINUTES      HOURS       DAYS        YEARS
                    -----------------------------------------------------------
   TIME STEP LENGTH  86400.      1440.0      24.000      1.0000     2.73785E-03
 STRESS PERIOD TIME  86400.      1440.0      24.000      1.0000     2.73785E-03
         TOTAL TIME 1.25280E+07 2.08800E+05  3480.0      145.00     0.39699    
1

 SOLVING FOR HEAD 
     4 CALLS TO PCG ROUTINE FOR TIME STEP   2 IN STRESS PERIOD  105
    68 TOTAL ITERATIONS

 MAXIMUM HEAD CHANGE FOR EACH ITERATION (1 INDICATES THE FIRST INNER ITERATION):

    HEAD CHANGE    HEAD CHANGE    HEAD CHANGE    HEAD CHANGE    HEAD CHANGE 
   LAYER,ROW,COL  LAYER,ROW,COL  LAYER,ROW,COL  LAYER,ROW,COL  LAYER,ROW,COL
 ---------------------------------------------------------------------------
  1  0.3697      0 -0.1912      0 -0.1192      0 -0.9855E-01  0  0.1028    
   (  5, 43,  5)  (  5, 35,  1)  (  5, 39,  2)  (  5, 41,  2)  (  5, 37,  1)
  0  0.8732E-01  0  0.7404E-01  0 -0.8007E-01  0 -0.5174E-01  0  0.3830E-01
   (  5, 39,  1)  (  5, 40,  1)  (  5, 37,  1)  (  5, 36,  6)  (  5, 35,  1)
  0 -0.3918E-01  0  0.3418E-01  0 -0.1526E-01  0 -0.2164E-01  0 -0.1355E-01
   (  5, 35,  9)  (  5, 32,  9)  (  5, 30,  3)  (  5, 30,  9)  (  5, 37,  1)
  0  0.9354E-02  0 -0.8309E-02  0 -0.7625E-02  0  0.5942E-02  0 -0.5005E-02
   (  5, 35,  2)  (  5, 38,  1)  (  5, 15,  1)  (  5, 36,  1)  (  5, 38,  4)
  0  0.4777E-02  0 -0.3484E-02  0  0.2454E-02  0  0.3005E-02  0 -0.2430E-02
   (  5, 37,  1)  (  5, 32,  4)  (  5, 34,  7)  (  5, 13,  1)  (  5, 13,  1)
  0  0.1464E-02  0 -0.7268E-03  0  0.1011E-02  0 -0.7217E-03  0  0.7233E-03
   (  5, 12,  1)  (  5, 35,  3)  (  5, 35,  1)  (  5, 38,  2)  (  5, 41,  2)
  1 -0.3905E-03  0  0.6086E-03  0  0.6264E-03  0 -0.5696E-03  0 -0.3189E-03
   (  5, 32,  3)  (  5, 33,  6)  (  5, 38,  1)  (  5, 39,  4)  (  5, 33,  1)
  0  0.2747E-03  0  0.1877E-03  0  0.1703E-03  0  0.1510E-03  0 -0.1204E-03
   (  5, 36,  2)  (  5, 23,  2)  (  5, 33,  4)  (  5, 34,  1)  (  5, 31, 10)
  0 -0.8337E-04  0  0.9085E-04  0  0.1059E-03  0 -0.7099E-04  0  0.5484E-04
   (  5, 28,  2)  (  5, 31,  3)  (  5, 34,  7)  (  5, 33,  9)  (  5, 34,  8)
  0 -0.4149E-04  0  0.4011E-04  0 -0.2250E-04  0  0.2749E-04  0  0.1680E-04
   (  5, 29,  9)  (  5, 32,  9)  (  5, 33,  2)  (  5, 38,  8)  (  5, 31,  1)
  0 -0.2505E-04  0 -0.1543E-04  0  0.1835E-04  0 -0.8873E-05  0  0.5748E-05
   (  5, 37,  6)  (  5, 42,  1)  (  5, 39,  1)  (  5, 41,  5)  (  5, 37,  2)
  0  0.4737E-05  0 -0.6573E-05  0  0.4610E-05  0 -0.2210E-05  0 -0.4190E-05
   (  5, 25,  6)  (  5, 37,  1)  (  5, 41,  5)  (  5, 31,  3)  (  5, 43,  6)
  1  0.1447E-05  0  0.1140E-05  0 -0.1319E-05  0  0.1691E-05  0  0.1465E-05
   (  5, 12,  1)  (  5, 26,  4)  (  5, 33,  3)  (  5, 31,  1)  (  5, 39,  2)
  0 -0.1471E-05  0  0.8608E-06  1 -0.5691E-06
   (  5, 37,  2)  (  5, 26,  7)  (  5, 25,  7)

 MAXIMUM RESIDUAL FOR EACH ITERATION (1 INDICATES THE FIRST INNER ITERATION):

    RESIDUAL       RESIDUAL       RESIDUAL       RESIDUAL       RESIDUAL    
   LAYER,ROW,COL  LAYER,ROW,COL  LAYER,ROW,COL  LAYER,ROW,COL  LAYER,ROW,COL
 ---------------------------------------------------------------------------
  1 -0.9260E-03  0 -0.7590E-03  0 -0.6831E-03  0 -0.6113E-03  0 -0.5263E-03
   (  3,  3,  1)  (  3,  3,  1)  (  3,  3,  1)  (  3,  3,  1)  (  3,  3,  1)
  0  0.4525E-03  0  0.4245E-03  0  0.3588E-03  0  0.2905E-03  0  0.2354E-03
   (  4, 43,  6)  (  4, 43,  6)  (  4, 43,  5)  (  4, 43,  4)  (  4, 43,  4)
  0  0.1833E-03  0  0.1541E-03  0  0.1472E-03  0  0.1250E-03  0  0.1026E-03
   (  4, 43,  4)  (  4, 44,  2)  (  4, 44,  2)  (  4, 44,  2)  (  4, 44,  2)
  0  0.9592E-04  0  0.7781E-04  0  0.5988E-04  0  0.4727E-04  0  0.4103E-04
   (  4, 44,  2)  (  4, 44,  2)  (  4, 44,  2)  (  4, 44,  2)  (  4, 44,  2)
  0  0.3241E-04  0  0.2630E-04  0  0.2307E-04  0  0.1590E-04  0  0.1096E-04
   (  4, 44,  2)  (  4, 44,  2)  (  4, 44,  2)  (  4, 44,  2)  (  4, 34, 35)
  0  0.8227E-05  0  0.7781E-05  0  0.5586E-05  0  0.4706E-05  0  0.3299E-05
   (  4, 34, 35)  (  4, 34, 35)  (  4, 34, 35)  (  4, 34, 35)  (  4, 34, 35)
  1  0.3203E-05  0  0.2996E-05  0  0.2640E-05  0  0.2134E-05  0  0.1762E-05
   (  4, 34, 35)  (  4, 43,  3)  (  4, 34, 35)  (  4, 34, 35)  (  4, 34, 35)
  0  0.1674E-05  0  0.1508E-05  0  0.1391E-05  0  0.1225E-05  0  0.1039E-05
   (  4, 34, 35)  (  4, 34, 35)  (  4, 34, 35)  (  4, 34, 35)  (  4, 34, 35)
  0  0.9084E-06  0 -0.7819E-06  0 -0.6191E-06  0 -0.4758E-06  0 -0.3484E-06
   (  4, 34, 35)  (  3,  3,  1)  (  3,  3,  1)  (  3,  3,  1)  (  3,  3,  1)
  0 -0.2646E-06  0 -0.1855E-06  0 -0.1613E-06  0 -0.1314E-06  0 -0.1226E-06
   (  3,  3,  1)  (  3,  3,  1)  (  3,  3,  1)  (  3,  3,  1)  (  3,  3,  1)
  0 -0.9789E-07  0 -0.7428E-07  0 -0.5783E-07  0 -0.4317E-07  0 -0.3486E-07
   (  3,  3,  1)  (  3,  3,  1)  (  3,  3,  1)  (  3,  3,  1)  (  3, 41, 22)
  0 -0.3088E-07  0 -0.2724E-07  0 -0.2275E-07  0 -0.2177E-07  0 -0.1555E-07
   (  3, 41, 22)  (  3, 41, 22)  (  3, 41, 22)  (  3, 41, 22)  (  3, 36, 32)
  1 -0.1454E-07  0 -0.1414E-07  0 -0.1338E-07  0 -0.1118E-07  0 -0.9730E-08
   (  3, 36, 32)  (  3, 36, 32)  (  3, 36, 32)  (  3, 36, 32)  (  3, 36, 32)
  0 -0.8158E-08  0 -0.7293E-08  1 -0.7181E-08
   (  3,  3,  1)  (  3,  3,  1)  (  3,  3,  1)



 OUTPUT CONTROL FOR STRESS PERIOD  105   TIME STEP    2
    SAVE HEAD FOR ALL LAYERS
    SAVE DRAWDOWN FOR ALL LAYERS
    SAVE BUDGET
    PRINT BUDGET
 UBDSV1 SAVING "         STORAGE" ON UNIT   9 AT TIME STEP  2, STRESS PERIOD 105
 UBDSV2 SAVING "   CONSTANT HEAD" ON UNIT   9 AT TIME STEP  2, STRESS PERIOD 105
 UBDSV1 SAVING "FLOW RIGHT FACE " ON UNIT   9 AT TIME STEP  2, STRESS PERIOD 105
 UBDSV1 SAVING "FLOW FRONT FACE " ON UNIT   9 AT TIME STEP  2, STRESS PERIOD 105
 UBDSV1 SAVING "FLOW LOWER FACE " ON UNIT   9 AT TIME STEP  2, STRESS PERIOD 105
 UBDSV3 SAVING "        RECHARGE" ON UNIT   9 AT TIME STEP  2, STRESS PERIOD 105

 HEAD WILL BE SAVED ON UNIT   37 AT END OF TIME STEP    2, STRESS PERIOD  105

 DRAWDOWN WILL BE SAVED ON UNIT   38 AT END OF TIME STEP    2, STRESS PERIOD  105
1
  VOLUMETRIC BUDGET FOR ENTIRE MODEL AT END OF TIME STEP    2, STRESS PERIOD 105
  ------------------------------------------------------------------------------

     CUMULATIVE VOLUMES      L**3       RATES FOR THIS TIME STEP      L**3/T
     ------------------                 ------------------------

           IN:                                      IN:
           ---                                      ---
             STORAGE =       14805.1250               STORAGE =           0.0000
       CONSTANT HEAD =       28284.0918         CONSTANT HEAD =       4.7624E-03
            RECHARGE =        1288.2948              RECHARGE =       1.0213E-04

            TOTAL IN =       44377.5117              TOTAL IN =       4.8645E-03

          OUT:                                     OUT:
          ----                                     ----
             STORAGE =       14401.5742               STORAGE =       4.6605E-03
       CONSTANT HEAD =       29977.1172         CONSTANT HEAD =       2.0393E-04
            RECHARGE =           0.0000              RECHARGE =           0.0000

           TOTAL OUT =       44378.6914             TOTAL OUT =       4.8644E-03

            IN - OUT =          -1.1797              IN - OUT =       6.8918E-08

 PERCENT DISCREPANCY =          -0.00     PERCENT DISCREPANCY =           0.00






         TIME SUMMARY AT END OF TIME STEP    2 IN STRESS PERIOD  105
                    SECONDS     MINUTES      HOURS       DAYS        YEARS
                    -----------------------------------------------------------
   TIME STEP LENGTH  86400.      1440.0      24.000      1.0000     2.73785E-03
 STRESS PERIOD TIME 1.72800E+05  2880.0      48.000      2.0000     5.47570E-03
         TOTAL TIME 1.26144E+07 2.10240E+05  3504.0      146.00     0.39973    
1

 SOLVING FOR HEAD 
     4 CALLS TO PCG ROUTINE FOR TIME STEP   3 IN STRESS PERIOD  105
    71 TOTAL ITERATIONS

 MAXIMUM HEAD CHANGE FOR EACH ITERATION (1 INDICATES THE FIRST INNER ITERATION):

    HEAD CHANGE    HEAD CHANGE    HEAD CHANGE    HEAD CHANGE    HEAD CHANGE 
   LAYER,ROW,COL  LAYER,ROW,COL  LAYER,ROW,COL  LAYER,ROW,COL  LAYER,ROW,COL
 ---------------------------------------------------------------------------
  1  0.3694      0 -0.1931      0 -0.1161      0 -0.9863E-01  0  0.1034    
   (  5, 43,  5)  (  5, 35,  1)  (  5, 39,  2)  (  5, 41,  2)  (  5, 37,  1)
  0  0.8518E-01  0  0.7438E-01  0 -0.8084E-01  0 -0.5192E-01  0  0.3852E-01
   (  5, 39,  1)  (  5, 40,  1)  (  5, 37,  1)  (  5, 36,  6)  (  5, 35,  1)
  0 -0.3818E-01  0  0.3098E-01  0  0.1283E-01  0 -0.2257E-01  0  0.1423E-01
   (  5, 35,  9)  (  5, 32,  9)  (  5, 31,  2)  (  5, 30,  9)  (  5, 36,  9)
  0 -0.8701E-02  0  0.6914E-02  0 -0.8578E-02  0 -0.5202E-02  0 -0.5385E-02
   (  5, 38,  1)  (  5, 34,  1)  (  5, 36,  4)  (  5, 31, 11)  (  5, 36,  7)
  0 -0.3405E-02  0  0.3345E-02  0 -0.2511E-02  0  0.2940E-02  0 -0.2406E-02
   (  5, 35,  1)  (  5, 36,  4)  (  5, 32,  4)  (  5, 13,  1)  (  5, 13,  1)
  0 -0.1731E-02  0  0.1108E-02  0 -0.9426E-03  0  0.4881E-03  0  0.5685E-03
   (  5, 37,  1)  (  5, 40,  2)  (  5, 38,  1)  (  5, 35,  1)  (  5, 12,  2)
  1  0.1349E-02  0  0.2231E-02  0  0.1910E-02  0  0.6535E-03  0 -0.4099E-03
   (  2, 40, 24)  (  2, 40, 24)  (  2, 40, 24)  (  5, 34,  2)  (  5, 39,  1)
  0  0.3913E-03  0 -0.2799E-03  0  0.2461E-03  0 -0.3219E-03  0  0.3127E-03
   (  5, 37,  2)  (  5, 30,  9)  (  5, 34,  1)  (  5, 37,  1)  (  5, 39,  2)
  0  0.1526E-03  0 -0.1680E-03  0  0.1530E-03  0  0.1067E-03  0 -0.9452E-04
   (  5, 30,  2)  (  5, 41,  2)  (  5, 38,  1)  (  5, 35,  3)  (  5, 33, 12)
  0  0.8452E-04  0  0.5434E-04  0 -0.4378E-04  0  0.6351E-04  0 -0.2942E-04
   (  5, 32,  9)  (  5, 35,  2)  (  5, 39,  2)  (  5, 37,  8)  (  5, 29,  1)
  0 -0.3502E-04  0  0.3264E-04  0  0.2190E-04  0 -0.1682E-04  0  0.1368E-04
   (  5, 37,  7)  (  5, 34,  9)  (  5, 39,  1)  (  5, 40,  5)  (  5, 36,  1)
  0 -0.9876E-05  0  0.7339E-05  0 -0.6635E-05  0 -0.6466E-05  0 -0.3089E-05
   (  5, 39,  1)  (  5, 34,  3)  (  5, 31,  4)  (  5, 42,  5)  (  5, 37,  3)
  1  0.2789E-05  0  0.3561E-05  0  0.1106E-04  0  0.6400E-05  0  0.3578E-05
   (  5, 35,  1)  (  2, 39, 18)  (  2, 39, 18)  (  2, 39, 18)  (  2, 39, 18)
  0  0.5651E-05  0 -0.1771E-05  0  0.2447E-05  0  0.1525E-05  0  0.8738E-06
   (  2, 39, 18)  (  5, 35,  1)  (  2, 39, 18)  (  2, 39, 18)  (  2, 39, 18)
  1  0.6015E-06
   (  5, 35,  5)

 MAXIMUM RESIDUAL FOR EACH ITERATION (1 INDICATES THE FIRST INNER ITERATION):

    RESIDUAL       RESIDUAL       RESIDUAL       RESIDUAL       RESIDUAL    
   LAYER,ROW,COL  LAYER,ROW,COL  LAYER,ROW,COL  LAYER,ROW,COL  LAYER,ROW,COL
 ---------------------------------------------------------------------------
  1 -0.9276E-03  0 -0.7584E-03  0 -0.6832E-03  0 -0.6115E-03  0 -0.5264E-03
   (  3,  3,  1)  (  3,  3,  1)  (  3,  3,  1)  (  3,  3,  1)  (  3,  3,  1)
  0  0.4547E-03  0  0.4267E-03  0  0.3603E-03  0  0.2916E-03  0  0.2362E-03
   (  4, 43,  6)  (  4, 43,  6)  (  4, 43,  5)  (  4, 43,  4)  (  4, 43,  4)
  0  0.1831E-03  0  0.1526E-03  0  0.1473E-03  0  0.1255E-03  0  0.1012E-03
   (  4, 43,  4)  (  4, 44,  2)  (  4, 44,  2)  (  4, 44,  2)  (  4, 44,  2)
  0  0.8233E-04  0  0.7630E-04  0  0.5978E-04  0  0.4683E-04  0  0.3476E-04
   (  4, 44,  2)  (  4, 44,  2)  (  4, 44,  2)  (  4, 44,  2)  (  4, 44,  2)
  0  0.2981E-04  0  0.2482E-04  0  0.2270E-04  0  0.1578E-04  0  0.1116E-04
   (  4, 44,  2)  (  4, 44,  2)  (  4, 44,  2)  (  4, 44,  2)  (  4, 34, 35)
  0  0.8608E-05  0  0.7611E-05  0  0.5553E-05  0  0.5198E-05  0  0.3375E-05
   (  4, 34, 35)  (  4, 34, 35)  (  4, 34, 35)  (  4, 34, 35)  (  4, 34, 35)
  1  0.3096E-05  0 -0.3000E-05  0 -0.2836E-05  0 -0.2781E-05  0 -0.2644E-05
   (  4, 34, 35)  (  2, 41, 23)  (  2, 41, 23)  (  2, 41, 23)  (  2, 41, 23)
  0 -0.2550E-05  0 -0.2326E-05  0 -0.2083E-05  0 -0.1771E-05  0 -0.1438E-05
   (  2, 41, 23)  (  2, 41, 23)  (  2, 41, 23)  (  2, 41, 23)  (  2, 41, 23)
  0 -0.1316E-05  0 -0.1065E-05  0  0.8959E-06  0  0.8375E-06  0  0.7237E-06
   (  2, 41, 23)  (  2, 41, 23)  (  3, 41, 23)  (  3, 41, 23)  (  3, 41, 23)
  0  0.6257E-06  0  0.5559E-06  0  0.4736E-06  0  0.3893E-06  0  0.3588E-06
   (  3, 41, 23)  (  3, 41, 23)  (  3, 41, 23)  (  3, 41, 23)  (  3, 41, 23)
  0  0.2926E-06  0  0.2356E-06  0  0.2118E-06  0  0.1845E-06  0  0.1511E-06
   (  3, 41, 23)  (  3, 41, 23)  (  3, 41, 23)  (  3, 41, 23)  (  3, 41, 23)
  0  0.1215E-06  0  0.1052E-06  0  0.9237E-07  0  0.6639E-07  0  0.5750E-07
   (  3, 41, 23)  (  3, 41, 23)  (  3, 41, 23)  (  3, 41, 23)  (  3, 41, 23)
  1  0.5697E-07  0  0.5280E-07  0  0.3982E-07  0  0.3218E-07  0  0.2789E-07
   (  3, 41, 23)  (  3, 41, 23)  (  3, 41, 23)  (  3, 41, 23)  (  3, 41, 23)
  0  0.2085E-07  0  0.1877E-07  0  0.1536E-07  0  0.1283E-07  0  0.1100E-07
   (  3, 41, 23)  (  3, 41, 23)  (  3, 41, 23)  (  3, 41, 23)  (  3, 41, 23)
  1  0.1075E-07
   (  3, 41, 23)



 OUTPUT CONTROL FOR STRESS PERIOD  105   TIME STEP    3
    SAVE HEAD FOR ALL LAYERS
    SAVE DRAWDOWN FOR ALL LAYERS
    SAVE BUDGET
    PRINT BUDGET
 UBDSV1 SAVING "         STORAGE" ON UNIT   9 AT TIME STEP  3, STRESS PERIOD 105
 UBDSV2 SAVING "   CONSTANT HEAD" ON UNIT   9 AT TIME STEP  3, STRESS PERIOD 105
 UBDSV1 SAVING "FLOW RIGHT FACE " ON UNIT   9 AT TIME STEP  3, STRESS PERIOD 105
 UBDSV1 SAVING "FLOW FRONT FACE " ON UNIT   9 AT TIME STEP  3, STRESS PERIOD 105
 UBDSV1 SAVING "FLOW LOWER FACE " ON UNIT   9 AT TIME STEP  3, STRESS PERIOD 105
 UBDSV3 SAVING "        RECHARGE" ON UNIT   9 AT TIME STEP  3, STRESS PERIOD 105

 HEAD WILL BE SAVED ON UNIT   37 AT END OF TIME STEP    3, STRESS PERIOD  105

 DRAWDOWN WILL BE SAVED ON UNIT   38 AT END OF TIME STEP    3, STRESS PERIOD  105
1
  VOLUMETRIC BUDGET FOR ENTIRE MODEL AT END OF TIME STEP    3, STRESS PERIOD 105
  ------------------------------------------------------------------------------

     CUMULATIVE VOLUMES      L**3       RATES FOR THIS TIME STEP      L**3/T
     ------------------                 ------------------------

           IN:                                      IN:
           ---                                      ---
             STORAGE =       14805.1250               STORAGE =           0.0000
       CONSTANT HEAD =       28651.6660         CONSTANT HEAD =       4.2543E-03
            RECHARGE =        1297.1188              RECHARGE =       1.0213E-04

            TOTAL IN =       44753.9062              TOTAL IN =       4.3565E-03

          OUT:                                     OUT:
          ----                                     ----
             STORAGE =       14777.9746               STORAGE =       4.3565E-03
       CONSTANT HEAD =       29977.1172         CONSTANT HEAD =           0.0000
            RECHARGE =           0.0000              RECHARGE =           0.0000

           TOTAL OUT =       44755.0938             TOTAL OUT =       4.3565E-03

            IN - OUT =          -1.1875              IN - OUT =      -2.9337E-08

 PERCENT DISCREPANCY =          -0.00     PERCENT DISCREPANCY =          -0.00






         TIME SUMMARY AT END OF TIME STEP    3 IN STRESS PERIOD  105
                    SECONDS     MINUTES      HOURS       DAYS        YEARS
                    -----------------------------------------------------------
   TIME STEP LENGTH  86400.      1440.0      24.000      1.0000     2.73785E-03
 STRESS PERIOD TIME 2.59200E+05  4320.0      72.000      3.0000     8.21355E-03
         TOTAL TIME 1.27008E+07 2.11680E+05  3528.0      147.00     0.40246    
1
1
                            STRESS PERIOD NO.  106, LENGTH =   86400.00    
                            -----------------------------------------------

                              NUMBER OF TIME STEPS =     1

                               MULTIPLIER FOR DELT =     1.000

                            INITIAL TIME STEP SIZE =   86400.00    

 REUSING RECH FROM LAST STRESS PERIOD

 CHD NO.   LAYER   ROW   COL    START HEAD        END HEAD         IFACE           
 ----------------------------------------------------------------------------------
      1      4      3      1       110.7           110.7           0.000    
      2      5      3      1       110.7           110.7           0.000    
      3      4      3      2       110.7           110.7           0.000    
      4      5      3      2       110.7           110.7           0.000    
      5      4      3      3       110.7           110.7           0.000    
      6      5      3      3       110.7           110.7           0.000    
      7      4      3      4       110.7           110.7           0.000    
      8      5      3      4       110.7           110.7           0.000    
      9      4      3      5       110.7           110.7           0.000    
     10      5      3      5       110.7           110.7           0.000    
     11      4      3      6       110.7           110.7           0.000    
     12      5      3      6       110.7           110.7           0.000    
     13      4      3      7       110.7           110.7           0.000    
     14      5      3      7       110.7           110.7           0.000    
     15      4      3      8       110.7           110.7           0.000    
     16      5      3      8       110.7           110.7           0.000    
     17      4      2      8       110.7           110.7           0.000    
     18      5      2      8       110.7           110.7           0.000    
     19      4      2      9       110.7           110.7           0.000    
     20      5      2      9       110.7           110.7           0.000    
     21      4      2     10       110.7           110.7           0.000    
     22      5      2     10       110.7           110.7           0.000    
     23      4      2     11       110.7           110.7           0.000    
     24      5      2     11       110.7           110.7           0.000    
     25      4      2     12       110.7           110.7           0.000    
     26      5      2     12       110.7           110.7           0.000    
     27      4      2     13       110.7           110.7           0.000    
     28      5      2     13       110.7           110.7           0.000    
     29      4      2     14       110.7           110.7           0.000    
     30      5      2     14       110.7           110.7           0.000    
     31      4      2     15       110.7           110.7           0.000    
     32      5      2     15       110.7           110.7           0.000    
     33      4      2     16       110.7           110.7           0.000    
     34      5      2     16       110.7           110.7           0.000    
     35      4      2     17       110.7           110.7           0.000    
     36      5      2     17       110.7           110.7           0.000    
     37      4      2     18       110.7           110.7           0.000    
     38      5      2     18       110.7           110.7           0.000    
     39      4      2     19       110.7           110.7           0.000    
     40      5      2     19       110.7           110.7           0.000    
     41      4      2     20       110.7           110.7           0.000    
     42      5      2     20       110.7           110.7           0.000    
     43      4      2     21       110.7           110.7           0.000    
     44      5      2     21       110.7           110.7           0.000    
     45      4      2     22       110.7           110.7           0.000    
     46      5      2     22       110.7           110.7           0.000    
     47      4      2     23       110.7           110.7           0.000    
     48      5      2     23       110.7           110.7           0.000    
     49      4      2     24       110.7           110.7           0.000    
     50      5      2     24       110.7           110.7           0.000    
     51      4      2     25       110.7           110.7           0.000    
     52      5      2     25       110.7           110.7           0.000    
     53      4      2     26       110.7           110.7           0.000    
     54      5      2     26       110.7           110.7           0.000    
     55      4      1     26       110.7           110.7           0.000    
     56      5      1     26       110.7           110.7           0.000    
     57      4      1     27       110.7           110.7           0.000    
     58      5      1     27       110.7           110.7           0.000    
     59      4      1     28       110.7           110.7           0.000    
     60      5      1     28       110.7           110.7           0.000    
     61      4      1     29       110.7           110.7           0.000    
     62      5      1     29       110.7           110.7           0.000    
     63      4      1     30       110.7           110.7           0.000    
     64      5      1     30       110.7           110.7           0.000    
     65      4      1     31       110.7           110.7           0.000    
     66      5      1     31       110.7           110.7           0.000    
     67      4      1     32       110.7           110.7           0.000    
     68      5      1     32       110.7           110.7           0.000    
     69      4      1     33       110.7           110.7           0.000    
     70      5      1     33       110.7           110.7           0.000    
     71      4      1     34       110.7           110.7           0.000    
     72      5      1     34       110.7           110.7           0.000    
     73      4      1     35       110.7           110.7           0.000    
     74      5      1     35       110.7           110.7           0.000    
     75      4     36     35       110.9           110.8           0.000    
     76      5     36     35       110.9           110.8           0.000    
     77      4     35     34       110.9           110.8           0.000    
     78      5     35     34       110.9           110.8           0.000    
     79      4     36     34       110.9           110.8           0.000    
     80      5     36     34       110.9           110.8           0.000    
     81      4     36     33       110.9           110.8           0.000    
     82      5     36     33       110.9           110.8           0.000    
     83      4     36     32       110.9           110.8           0.000    
     84      5     36     32       110.9           110.8           0.000    
     85      4     37     32       110.9           110.8           0.000    
     86      5     37     32       110.9           110.8           0.000    
     87      4     37     31       110.9           110.8           0.000    
     88      5     37     31       110.9           110.8           0.000    
     89      4     38     31       110.9           110.8           0.000    
     90      5     38     31       110.9           110.8           0.000    
     91      4     38     30       110.9           110.8           0.000    
     92      5     38     30       110.9           110.8           0.000    
     93      4     39     30       110.9           110.8           0.000    
     94      5     39     30       110.9           110.8           0.000    
     95      4     39     29       110.9           110.8           0.000    
     96      5     39     29       110.9           110.8           0.000    
     97      4     40     29       110.9           110.8           0.000    
     98      5     40     29       110.9           110.8           0.000    
     99      4     40     28       110.9           110.8           0.000    
    100      5     40     28       110.9           110.8           0.000    
    101      4     40     27       110.9           110.8           0.000    
    102      5     40     27       110.9           110.8           0.000    
    103      4     41     27       110.9           110.8           0.000    
    104      5     41     27       110.9           110.8           0.000    
    105      4     41     26       110.9           110.8           0.000    
    106      5     41     26       110.9           110.8           0.000    
    107      4     41     25       110.9           110.8           0.000    
    108      5     41     25       110.9           110.8           0.000    
    109      4     41     24       110.9           110.8           0.000    
    110      5     41     24       110.9           110.8           0.000    
    111      4     41     23       110.9           110.8           0.000    
    112      5     41     23       110.9           110.8           0.000    
    113      4     41     22       110.9           110.8           0.000    
    114      5     41     22       110.9           110.8           0.000    
    115      4     42     22       110.9           110.8           0.000    
    116      5     42     22       110.9           110.8           0.000    
    117      4     42     21       110.9           110.8           0.000    
    118      5     42     21       110.9           110.8           0.000    
    119      4     42     20       110.9           110.8           0.000    
    120      5     42     20       110.9           110.8           0.000    
    121      4     42     19       110.9           110.8           0.000    
    122      5     42     19       110.9           110.8           0.000    
    123      4     43     18       110.9           110.8           0.000    
    124      5     43     18       110.9           110.8           0.000    
    125      4     42     18       110.9           110.8           0.000    
    126      5     42     18       110.9           110.8           0.000    
    127      4     42     17       110.9           110.8           0.000    
    128      5     42     17       110.9           110.8           0.000    
    129      4     42     16       110.9           110.8           0.000    
    130      5     42     16       110.9           110.8           0.000    
    131      4     42     15       110.9           110.8           0.000    
    132      5     42     15       110.9           110.8           0.000    
    133      4     43     15       110.9           110.8           0.000    
    134      5     43     15       110.9           110.8           0.000    
    135      4     43     14       110.9           110.8           0.000    
    136      5     43     14       110.9           110.8           0.000    
    137      4     43     13       110.9           110.8           0.000    
    138      5     43     13       110.9           110.8           0.000    
    139      4     43     12       110.9           110.8           0.000    
    140      5     43     12       110.9           110.8           0.000    
    141      4     43     11       110.9           110.7           0.000    
    142      5     43     11       110.9           110.7           0.000    
    143      4     43     10       110.9           110.7           0.000    
    144      5     43     10       110.9           110.7           0.000    
    145      4     44     10       110.9           110.7           0.000    
    146      5     44     10       110.9           110.7           0.000    
    147      4     44      9       110.9           110.7           0.000    
    148      5     44      9       110.9           110.7           0.000    
    149      4     44      8       110.9           110.7           0.000    
    150      5     44      8       110.9           110.7           0.000    
    151      4     44      7       110.9           110.7           0.000    
    152      5     44      7       110.9           110.7           0.000    
    153      4     44      6       110.9           110.7           0.000    
    154      5     44      6       110.9           110.7           0.000    
    155      4     44      5       110.9           110.7           0.000    
    156      5     44      5       110.9           110.7           0.000    
    157      4     44      4       110.9           110.7           0.000    
    158      5     44      4       110.9           110.7           0.000    
    159      4     44      3       110.9           110.7           0.000    
    160      5     44      3       110.9           110.7           0.000    
    161      4     45      3       110.9           110.7           0.000    
    162      5     45      3       110.9           110.7           0.000    
    163      4     45      2       110.9           110.7           0.000    
    164      5     45      2       110.9           110.7           0.000    
    165      4     45      1       110.9           110.7           0.000    
    166      5     45      1       110.9           110.7           0.000    


    166 TIME-VARIANT SPECIFIED-HEAD CELLS

 SOLVING FOR HEAD 


     4 CALLS TO PCG ROUTINE FOR TIME STEP   1 IN STRESS PERIOD  106
    73 TOTAL ITERATIONS

 MAXIMUM HEAD CHANGE FOR EACH ITERATION (1 INDICATES THE FIRST INNER ITERATION):

    HEAD CHANGE    HEAD CHANGE    HEAD CHANGE    HEAD CHANGE    HEAD CHANGE 
   LAYER,ROW,COL  LAYER,ROW,COL  LAYER,ROW,COL  LAYER,ROW,COL  LAYER,ROW,COL
 ---------------------------------------------------------------------------
  1 -0.3903      0  0.2260      0 -0.1378      0  0.1092      0 -0.1689    
   (  5, 43,  5)  (  5, 35,  1)  (  5, 31,  2)  (  5, 41,  2)  (  5, 37,  1)
  0  0.8228E-01  0 -0.9698E-01  0  0.1109      0  0.6223E-01  0  0.5028E-01
   (  5, 35,  2)  (  5, 40,  1)  (  5, 37,  1)  (  5, 37,  6)  (  5, 40,  2)
  0  0.3931E-01  0 -0.3842E-01  0  0.1802E-01  0  0.2172E-01  0 -0.2356E-01
   (  5, 36, 10)  (  5, 33,  9)  (  5, 30,  3)  (  5, 31,  9)  (  5, 36,  8)
  0  0.9800E-02  0  0.1377E-01  0 -0.1017E-01  0  0.8060E-02  0  0.6669E-02
   (  5, 35,  4)  (  5, 34,  9)  (  5, 31,  9)  (  5, 30, 10)  (  5, 38,  4)
  0 -0.4878E-02  0  0.4218E-02  0 -0.3695E-02  0 -0.4513E-02  0  0.3187E-02
   (  5, 37,  1)  (  5, 31,  3)  (  5, 34,  7)  (  5, 13,  1)  (  5, 13,  1)
  0 -0.1773E-02  0  0.1182E-02  0  0.1164E-02  0 -0.9734E-03  0 -0.8716E-03
   (  5, 13,  2)  (  5, 37,  1)  (  5, 34,  3)  (  5, 36,  1)  (  5, 12,  1)
  1  0.1602E-02  0  0.3115E-02  0  0.2872E-02  0 -0.1277E-02  0  0.7449E-03
   (  5, 27,  1)  (  2, 40, 24)  (  2, 40, 24)  (  5, 38,  1)  (  5, 24,  3)
  0  0.1038E-02  0  0.4873E-03  0  0.4680E-03  0 -0.3378E-03  0  0.4474E-03
   (  5, 36,  1)  (  5, 30,  5)  (  5, 23,  8)  (  5, 39,  1)  (  5, 41,  2)
  0  0.3857E-03  0 -0.2121E-03  0 -0.2852E-03  0  0.2542E-03  0 -0.1578E-03
   (  5, 35,  3)  (  5, 30,  2)  (  5, 14,  2)  (  5, 14,  1)  (  5, 35,  9)
  0 -0.1963E-03  0  0.6853E-04  0  0.8431E-04  0 -0.5993E-04  0 -0.4851E-04
   (  5, 13,  1)  (  5, 36,  4)  (  5, 15,  1)  (  5, 15,  1)  (  5, 27,  9)
  0  0.2823E-04  0 -0.3838E-04  0 -0.3224E-04  0  0.2616E-04  0 -0.2709E-04
   (  5, 33,  3)  (  5, 34,  8)  (  5, 38,  1)  (  5, 40,  5)  (  5, 36,  7)
  0  0.2078E-04  0  0.1301E-04  0  0.8083E-05  0 -0.8635E-05  0  0.6420E-05
   (  5, 35,  6)  (  5, 36,  1)  (  5, 32,  2)  (  5, 35,  1)  (  5, 42,  5)
  1  0.3684E-05  0 -0.4804E-05  0  0.6305E-05  0 -0.6345E-05  0  0.5255E-05
   (  5, 29,  2)  (  5, 41,  2)  (  5, 39,  2)  (  5, 35,  2)  (  5, 33,  3)
  0 -0.4294E-05  0  0.2533E-05  0  0.2601E-05  0  0.1423E-05  0 -0.1623E-05
   (  5, 36,  6)  (  5, 36,  1)  (  5, 35,  6)  (  5, 16,  1)  (  5, 40,  1)
  0  0.1206E-05  0 -0.8982E-06  1  0.6985E-06
   (  5, 33,  6)  (  5, 33,  3)  (  5, 34,  2)

 MAXIMUM RESIDUAL FOR EACH ITERATION (1 INDICATES THE FIRST INNER ITERATION):

    RESIDUAL       RESIDUAL       RESIDUAL       RESIDUAL       RESIDUAL    
   LAYER,ROW,COL  LAYER,ROW,COL  LAYER,ROW,COL  LAYER,ROW,COL  LAYER,ROW,COL
 ---------------------------------------------------------------------------
  1  0.2284E-02  0  0.1790E-02  0  0.1531E-02  0  0.1253E-02  0  0.1028E-02
   (  4, 44,  2)  (  4, 44,  2)  (  4, 44,  2)  (  4, 44,  2)  (  4, 35, 35)
  0  0.9000E-03  0  0.7673E-03  0  0.6126E-03  0  0.4951E-03  0  0.3907E-03
   (  3, 40, 27)  (  3, 40, 27)  (  3, 40, 27)  (  3, 40, 27)  (  4, 35, 35)
  0  0.3053E-03  0  0.2414E-03  0  0.2231E-03  0 -0.1739E-03  0 -0.1372E-03
   (  4, 35, 35)  (  4, 35, 35)  (  4, 35, 35)  (  3, 35, 35)  (  3, 35, 35)
  0 -0.1255E-03  0 -0.1022E-03  0 -0.7636E-04  0 -0.6517E-04  0 -0.5495E-04
   (  3, 35, 35)  (  3, 35, 35)  (  4, 34, 35)  (  4, 34, 35)  (  4, 34, 35)
  0 -0.5101E-04  0 -0.4687E-04  0 -0.4259E-04  0 -0.3448E-04  0 -0.2799E-04
   (  4, 34, 35)  (  4, 34, 35)  (  4, 34, 35)  (  4, 34, 35)  (  4, 34, 35)
  0 -0.2182E-04  0 -0.1822E-04  0 -0.1592E-04  0 -0.1462E-04  0 -0.1069E-04
   (  4, 34, 35)  (  4, 34, 35)  (  4, 34, 35)  (  4, 34, 35)  (  4, 34, 35)
  1 -0.1020E-04  0 -0.7978E-05  0 -0.5580E-05  0 -0.5104E-05  0 -0.4617E-05
   (  4, 34, 35)  (  4, 34, 35)  (  4, 34, 35)  (  4, 34, 35)  (  4, 34, 35)
  0 -0.4120E-05  0 -0.3805E-05  0 -0.3310E-05  0 -0.2712E-05  0 -0.2010E-05
   (  4, 34, 35)  (  4, 34, 35)  (  4, 34, 35)  (  4, 34, 35)  (  4, 34, 35)
  0  0.1350E-05  0  0.1291E-05  0  0.1047E-05  0  0.8855E-06  0  0.7362E-06
   (  4, 35, 35)  (  4, 35, 35)  (  4, 35, 35)  (  4, 35, 35)  (  4, 35, 35)
  0  0.6066E-06  0  0.5787E-06  0  0.4972E-06  0  0.4221E-06  0  0.3626E-06
   (  4, 35, 35)  (  3, 41, 23)  (  3, 41, 23)  (  4, 35, 35)  (  4, 35, 35)
  0  0.3458E-06  0  0.2993E-06  0  0.2627E-06  0  0.2033E-06  0  0.1578E-06
   (  4, 35, 35)  (  4, 35, 35)  (  4, 35, 35)  (  4, 35, 35)  (  4, 35, 35)
  0  0.1241E-06  0  0.9476E-07  0  0.8549E-07  0  0.7612E-07  0  0.6775E-07
   (  4, 35, 35)  (  3, 42, 17)  (  3, 42, 17)  (  3, 42, 17)  (  3, 42, 17)
  1  0.6764E-07  0  0.6274E-07  0  0.5821E-07  0  0.5278E-07  0  0.4525E-07
   (  3, 42, 17)  (  3, 42, 17)  (  3, 42, 17)  (  3, 42, 17)  (  3, 42, 17)
  0  0.3733E-07  0  0.3433E-07  0  0.2965E-07  0  0.2524E-07  0  0.2175E-07
   (  3, 42, 17)  (  3, 42, 17)  (  3, 42, 17)  (  3, 42, 17)  (  3, 42, 17)
  0  0.1862E-07  0  0.1708E-07  1  0.1673E-07
   (  3, 42, 17)  (  3, 42, 17)  (  3, 42, 17)



 OUTPUT CONTROL FOR STRESS PERIOD  106   TIME STEP    1
    SAVE HEAD FOR ALL LAYERS
    SAVE DRAWDOWN FOR ALL LAYERS
    SAVE BUDGET
    PRINT BUDGET
 UBDSV1 SAVING "         STORAGE" ON UNIT   9 AT TIME STEP  1, STRESS PERIOD 106
 UBDSV2 SAVING "   CONSTANT HEAD" ON UNIT   9 AT TIME STEP  1, STRESS PERIOD 106
 UBDSV1 SAVING "FLOW RIGHT FACE " ON UNIT   9 AT TIME STEP  1, STRESS PERIOD 106
 UBDSV1 SAVING "FLOW FRONT FACE " ON UNIT   9 AT TIME STEP  1, STRESS PERIOD 106
 UBDSV1 SAVING "FLOW LOWER FACE " ON UNIT   9 AT TIME STEP  1, STRESS PERIOD 106
 UBDSV3 SAVING "        RECHARGE" ON UNIT   9 AT TIME STEP  1, STRESS PERIOD 106

 HEAD WILL BE SAVED ON UNIT   37 AT END OF TIME STEP    1, STRESS PERIOD  106

 DRAWDOWN WILL BE SAVED ON UNIT   38 AT END OF TIME STEP    1, STRESS PERIOD  106
1
  VOLUMETRIC BUDGET FOR ENTIRE MODEL AT END OF TIME STEP    1, STRESS PERIOD 106
  ------------------------------------------------------------------------------

     CUMULATIVE VOLUMES      L**3       RATES FOR THIS TIME STEP      L**3/T
     ------------------                 ------------------------

           IN:                                      IN:
           ---                                      ---
             STORAGE =       14904.3672               STORAGE =       1.1486E-03
       CONSTANT HEAD =       28658.9238         CONSTANT HEAD =       8.3999E-05
            RECHARGE =        1305.9427              RECHARGE =       1.0213E-04

            TOTAL IN =       44869.2305              TOTAL IN =       1.3348E-03

          OUT:                                     OUT:
          ----                                     ----
             STORAGE =       14787.8525               STORAGE =       1.1432E-04
       CONSTANT HEAD =       30082.5781         CONSTANT HEAD =       1.2206E-03
            RECHARGE =           0.0000              RECHARGE =           0.0000

           TOTAL OUT =       44870.4297             TOTAL OUT =       1.3349E-03

            IN - OUT =          -1.1992              IN - OUT =      -1.7055E-07

 PERCENT DISCREPANCY =          -0.00     PERCENT DISCREPANCY =          -0.01






         TIME SUMMARY AT END OF TIME STEP    1 IN STRESS PERIOD  106
                    SECONDS     MINUTES      HOURS       DAYS        YEARS
                    -----------------------------------------------------------
   TIME STEP LENGTH  86400.      1440.0      24.000      1.0000     2.73785E-03
 STRESS PERIOD TIME  86400.      1440.0      24.000      1.0000     2.73785E-03
         TOTAL TIME 1.27872E+07 2.13120E+05  3552.0      148.00     0.40520    
1
1
                            STRESS PERIOD NO.  107, LENGTH =   86400.00    
                            -----------------------------------------------

                              NUMBER OF TIME STEPS =     1

                               MULTIPLIER FOR DELT =     1.000

                            INITIAL TIME STEP SIZE =   86400.00    

 REUSING RECH FROM LAST STRESS PERIOD

 CHD NO.   LAYER   ROW   COL    START HEAD        END HEAD         IFACE           
 ----------------------------------------------------------------------------------
      1      4      3      1       110.7           110.7           0.000    
      2      5      3      1       110.7           110.7           0.000    
      3      4      3      2       110.7           110.7           0.000    
      4      5      3      2       110.7           110.7           0.000    
      5      4      3      3       110.7           110.7           0.000    
      6      5      3      3       110.7           110.7           0.000    
      7      4      3      4       110.7           110.7           0.000    
      8      5      3      4       110.7           110.7           0.000    
      9      4      3      5       110.7           110.7           0.000    
     10      5      3      5       110.7           110.7           0.000    
     11      4      3      6       110.7           110.7           0.000    
     12      5      3      6       110.7           110.7           0.000    
     13      4      3      7       110.7           110.7           0.000    
     14      5      3      7       110.7           110.7           0.000    
     15      4      3      8       110.7           110.7           0.000    
     16      5      3      8       110.7           110.7           0.000    
     17      4      2      8       110.7           110.7           0.000    
     18      5      2      8       110.7           110.7           0.000    
     19      4      2      9       110.7           110.7           0.000    
     20      5      2      9       110.7           110.7           0.000    
     21      4      2     10       110.7           110.7           0.000    
     22      5      2     10       110.7           110.7           0.000    
     23      4      2     11       110.7           110.7           0.000    
     24      5      2     11       110.7           110.7           0.000    
     25      4      2     12       110.7           110.7           0.000    
     26      5      2     12       110.7           110.7           0.000    
     27      4      2     13       110.7           110.7           0.000    
     28      5      2     13       110.7           110.7           0.000    
     29      4      2     14       110.7           110.7           0.000    
     30      5      2     14       110.7           110.7           0.000    
     31      4      2     15       110.7           110.7           0.000    
     32      5      2     15       110.7           110.7           0.000    
     33      4      2     16       110.7           110.7           0.000    
     34      5      2     16       110.7           110.7           0.000    
     35      4      2     17       110.7           110.7           0.000    
     36      5      2     17       110.7           110.7           0.000    
     37      4      2     18       110.7           110.7           0.000    
     38      5      2     18       110.7           110.7           0.000    
     39      4      2     19       110.7           110.7           0.000    
     40      5      2     19       110.7           110.7           0.000    
     41      4      2     20       110.7           110.7           0.000    
     42      5      2     20       110.7           110.7           0.000    
     43      4      2     21       110.7           110.7           0.000    
     44      5      2     21       110.7           110.7           0.000    
     45      4      2     22       110.7           110.7           0.000    
     46      5      2     22       110.7           110.7           0.000    
     47      4      2     23       110.7           110.7           0.000    
     48      5      2     23       110.7           110.7           0.000    
     49      4      2     24       110.7           110.7           0.000    
     50      5      2     24       110.7           110.7           0.000    
     51      4      2     25       110.7           110.7           0.000    
     52      5      2     25       110.7           110.7           0.000    
     53      4      2     26       110.7           110.7           0.000    
     54      5      2     26       110.7           110.7           0.000    
     55      4      1     26       110.7           110.7           0.000    
     56      5      1     26       110.7           110.7           0.000    
     57      4      1     27       110.7           110.7           0.000    
     58      5      1     27       110.7           110.7           0.000    
     59      4      1     28       110.7           110.7           0.000    
     60      5      1     28       110.7           110.7           0.000    
     61      4      1     29       110.7           110.7           0.000    
     62      5      1     29       110.7           110.7           0.000    
     63      4      1     30       110.7           110.7           0.000    
     64      5      1     30       110.7           110.7           0.000    
     65      4      1     31       110.7           110.7           0.000    
     66      5      1     31       110.7           110.7           0.000    
     67      4      1     32       110.7           110.7           0.000    
     68      5      1     32       110.7           110.7           0.000    
     69      4      1     33       110.7           110.7           0.000    
     70      5      1     33       110.7           110.7           0.000    
     71      4      1     34       110.7           110.7           0.000    
     72      5      1     34       110.7           110.7           0.000    
     73      4      1     35       110.7           110.7           0.000    
     74      5      1     35       110.7           110.7           0.000    
     75      4     36     35       110.8           110.7           0.000    
     76      5     36     35       110.8           110.7           0.000    
     77      4     35     34       110.8           110.7           0.000    
     78      5     35     34       110.8           110.7           0.000    
     79      4     36     34       110.8           110.7           0.000    
     80      5     36     34       110.8           110.7           0.000    
     81      4     36     33       110.8           110.7           0.000    
     82      5     36     33       110.8           110.7           0.000    
     83      4     36     32       110.8           110.7           0.000    
     84      5     36     32       110.8           110.7           0.000    
     85      4     37     32       110.8           110.7           0.000    
     86      5     37     32       110.8           110.7           0.000    
     87      4     37     31       110.8           110.7           0.000    
     88      5     37     31       110.8           110.7           0.000    
     89      4     38     31       110.8           110.7           0.000    
     90      5     38     31       110.8           110.7           0.000    
     91      4     38     30       110.8           110.7           0.000    
     92      5     38     30       110.8           110.7           0.000    
     93      4     39     30       110.8           110.7           0.000    
     94      5     39     30       110.8           110.7           0.000    
     95      4     39     29       110.8           110.7           0.000    
     96      5     39     29       110.8           110.7           0.000    
     97      4     40     29       110.8           110.7           0.000    
     98      5     40     29       110.8           110.7           0.000    
     99      4     40     28       110.8           110.7           0.000    
    100      5     40     28       110.8           110.7           0.000    
    101      4     40     27       110.8           110.7           0.000    
    102      5     40     27       110.8           110.7           0.000    
    103      4     41     27       110.8           110.7           0.000    
    104      5     41     27       110.8           110.7           0.000    
    105      4     41     26       110.8           110.7           0.000    
    106      5     41     26       110.8           110.7           0.000    
    107      4     41     25       110.8           110.7           0.000    
    108      5     41     25       110.8           110.7           0.000    
    109      4     41     24       110.8           110.7           0.000    
    110      5     41     24       110.8           110.7           0.000    
    111      4     41     23       110.8           110.7           0.000    
    112      5     41     23       110.8           110.7           0.000    
    113      4     41     22       110.8           110.7           0.000    
    114      5     41     22       110.8           110.7           0.000    
    115      4     42     22       110.8           110.7           0.000    
    116      5     42     22       110.8           110.7           0.000    
    117      4     42     21       110.8           110.7           0.000    
    118      5     42     21       110.8           110.7           0.000    
    119      4     42     20       110.8           110.7           0.000    
    120      5     42     20       110.8           110.7           0.000    
    121      4     42     19       110.8           110.7           0.000    
    122      5     42     19       110.8           110.7           0.000    
    123      4     43     18       110.8           110.7           0.000    
    124      5     43     18       110.8           110.7           0.000    
    125      4     42     18       110.8           110.7           0.000    
    126      5     42     18       110.8           110.7           0.000    
    127      4     42     17       110.8           110.7           0.000    
    128      5     42     17       110.8           110.7           0.000    
    129      4     42     16       110.8           110.7           0.000    
    130      5     42     16       110.8           110.7           0.000    
    131      4     42     15       110.8           110.7           0.000    
    132      5     42     15       110.8           110.7           0.000    
    133      4     43     15       110.8           110.7           0.000    
    134      5     43     15       110.8           110.7           0.000    
    135      4     43     14       110.8           110.7           0.000    
    136      5     43     14       110.8           110.7           0.000    
    137      4     43     13       110.8           110.7           0.000    
    138      5     43     13       110.8           110.7           0.000    
    139      4     43     12       110.8           110.7           0.000    
    140      5     43     12       110.8           110.7           0.000    
    141      4     43     11       110.7           110.7           0.000    
    142      5     43     11       110.7           110.7           0.000    
    143      4     43     10       110.7           110.7           0.000    
    144      5     43     10       110.7           110.7           0.000    
    145      4     44     10       110.7           110.7           0.000    
    146      5     44     10       110.7           110.7           0.000    
    147      4     44      9       110.7           110.7           0.000    
    148      5     44      9       110.7           110.7           0.000    
    149      4     44      8       110.7           110.7           0.000    
    150      5     44      8       110.7           110.7           0.000    
    151      4     44      7       110.7           110.7           0.000    
    152      5     44      7       110.7           110.7           0.000    
    153      4     44      6       110.7           110.7           0.000    
    154      5     44      6       110.7           110.7           0.000    
    155      4     44      5       110.7           110.7           0.000    
    156      5     44      5       110.7           110.7           0.000    
    157      4     44      4       110.7           110.7           0.000    
    158      5     44      4       110.7           110.7           0.000    
    159      4     44      3       110.7           110.7           0.000    
    160      5     44      3       110.7           110.7           0.000    
    161      4     45      3       110.7           110.7           0.000    
    162      5     45      3       110.7           110.7           0.000    
    163      4     45      2       110.7           110.7           0.000    
    164      5     45      2       110.7           110.7           0.000    
    165      4     45      1       110.7           110.7           0.000    
    166      5     45      1       110.7           110.7           0.000    


    166 TIME-VARIANT SPECIFIED-HEAD CELLS

 SOLVING FOR HEAD 


     3 CALLS TO PCG ROUTINE FOR TIME STEP   1 IN STRESS PERIOD  107
    61 TOTAL ITERATIONS

 MAXIMUM HEAD CHANGE FOR EACH ITERATION (1 INDICATES THE FIRST INNER ITERATION):

    HEAD CHANGE    HEAD CHANGE    HEAD CHANGE    HEAD CHANGE    HEAD CHANGE 
   LAYER,ROW,COL  LAYER,ROW,COL  LAYER,ROW,COL  LAYER,ROW,COL  LAYER,ROW,COL
 ---------------------------------------------------------------------------
  1 -0.1207      0  0.6566E-01  0 -0.4053E-01  0  0.3354E-01  0 -0.4801E-01
   (  5, 43,  5)  (  5, 34,  1)  (  5, 30,  2)  (  5, 41,  2)  (  5, 37,  1)
  0 -0.2297E-01  0 -0.2810E-01  0  0.3145E-01  0  0.1706E-01  0  0.1508E-01
   (  5, 33,  6)  (  5, 40,  1)  (  5, 37,  1)  (  5, 37,  6)  (  5, 40,  2)
  0  0.1172E-01  0 -0.1207E-01  0  0.6072E-02  0  0.7435E-02  0 -0.5405E-02
   (  5, 36, 10)  (  5, 32,  9)  (  5, 29,  3)  (  5, 30,  9)  (  5, 36,  8)
  0  0.2886E-02  0  0.3293E-02  0  0.3367E-02  0  0.2205E-02  0  0.2150E-02
   (  5, 36,  1)  (  5, 27, 10)  (  5, 15,  1)  (  5, 39,  1)  (  5, 36,  7)
  0  0.1405E-02  0 -0.1297E-02  0  0.8354E-03  0 -0.1146E-02  0  0.8413E-03
   (  5, 38,  3)  (  5, 37,  1)  (  5, 33,  4)  (  5, 30,  2)  (  5, 13,  1)
  0 -0.5569E-03  0  0.3949E-03  0 -0.3566E-03  0 -0.3228E-03  0  0.2543E-03
   (  5, 12,  1)  (  5, 37,  1)  (  5, 33,  4)  (  5, 40,  2)  (  5, 41,  6)
  1 -0.1972E-03  0  0.8478E-04  0 -0.1870E-03  0 -0.1302E-03  0 -0.8832E-04
   (  5, 40,  5)  (  5, 28,  2)  (  5, 34,  3)  (  5, 37,  1)  (  5, 37,  1)
  0  0.1061E-03  0 -0.6634E-04  0  0.6163E-04  0  0.5486E-04  0 -0.4722E-04
   (  5, 39,  2)  (  5, 27,  6)  (  5, 37,  1)  (  5, 30,  9)  (  5, 33, 11)
  0 -0.5553E-04  0 -0.2299E-04  0  0.2803E-04  0 -0.2634E-04  0 -0.1723E-04
   (  5, 14,  1)  (  5, 37,  4)  (  5, 32,  4)  (  5, 34,  8)  (  5, 34,  3)
  0 -0.1208E-04  0 -0.9280E-05  0  0.7057E-05  0 -0.8605E-05  0  0.6748E-05
   (  5, 31,  8)  (  5, 31,  2)  (  5, 36,  4)  (  5, 37,  8)  (  5, 30,  8)
  0 -0.3310E-05  0  0.4943E-05  0  0.3777E-05  0 -0.5106E-05  0  0.2623E-05
   (  5, 31,  1)  (  5, 32,  5)  (  5, 35,  1)  (  5, 38,  1)  (  5, 40,  1)
  0  0.2821E-05  0  0.2076E-05  0 -0.1584E-05  0  0.1771E-05  0 -0.4073E-06
   (  5, 34,  6)  (  5, 37,  1)  (  5, 39,  1)  (  5, 43,  5)  (  5, 28,  3)
  1  0.3533E-06
   (  5, 29,  2)

 MAXIMUM RESIDUAL FOR EACH ITERATION (1 INDICATES THE FIRST INNER ITERATION):

    RESIDUAL       RESIDUAL       RESIDUAL       RESIDUAL       RESIDUAL    
   LAYER,ROW,COL  LAYER,ROW,COL  LAYER,ROW,COL  LAYER,ROW,COL  LAYER,ROW,COL
 ---------------------------------------------------------------------------
  1  0.6439E-03  0  0.5016E-03  0  0.4211E-03  0  0.3754E-03  0  0.3147E-03
   (  4, 44,  2)  (  4, 44,  2)  (  4, 44,  2)  (  4, 35, 35)  (  4, 35, 35)
  0  0.2665E-03  0  0.2241E-03  0  0.1777E-03  0  0.1419E-03  0  0.1108E-03
   (  4, 35, 35)  (  3, 40, 27)  (  3, 40, 27)  (  3, 40, 27)  (  3, 40, 27)
  0  0.8381E-04  0 -0.7211E-04  0 -0.6731E-04  0 -0.5513E-04  0 -0.4289E-04
   (  3, 40, 27)  (  3, 35, 35)  (  3, 35, 35)  (  3, 35, 35)  (  3, 35, 35)
  0 -0.3966E-04  0 -0.3057E-04  0 -0.2309E-04  0 -0.1949E-04  0 -0.1626E-04
   (  3, 35, 35)  (  3, 35, 35)  (  4, 34, 35)  (  4, 34, 35)  (  4, 34, 35)
  0 -0.1497E-04  0 -0.1276E-04  0 -0.1188E-04  0 -0.1008E-04  0 -0.8005E-05
   (  4, 34, 35)  (  4, 34, 35)  (  4, 34, 35)  (  4, 34, 35)  (  4, 34, 35)
  0 -0.6214E-05  0 -0.5765E-05  0 -0.4893E-05  0 -0.4163E-05  0 -0.3020E-05
   (  4, 34, 35)  (  4, 34, 35)  (  4, 34, 35)  (  4, 34, 35)  (  4, 34, 35)
  1 -0.2857E-05  0 -0.2802E-05  0 -0.2433E-05  0 -0.2208E-05  0 -0.2017E-05
   (  4, 34, 35)  (  4, 34, 35)  (  4, 34, 35)  (  4, 34, 35)  (  4, 34, 35)
  0 -0.1605E-05  0 -0.1288E-05  0 -0.1120E-05  0 -0.8692E-06  0 -0.6962E-06
   (  4, 34, 35)  (  4, 34, 35)  (  4, 34, 35)  (  4, 34, 35)  (  4, 34, 35)
  0 -0.5241E-06  0  0.4638E-06  0  0.3960E-06  0  0.3248E-06  0  0.2471E-06
   (  4, 34, 35)  (  4, 35, 35)  (  4, 35, 35)  (  4, 35, 35)  (  4, 35, 35)
  0  0.1858E-06  0  0.1427E-06  0  0.1315E-06  0  0.9947E-07  0  0.7451E-07
   (  4, 35, 35)  (  4, 35, 35)  (  4, 35, 35)  (  4, 35, 35)  (  4, 35, 35)
  0  0.6846E-07  0  0.5415E-07  0  0.4633E-07  0  0.3549E-07  0  0.2558E-07
   (  4, 35, 35)  (  4, 35, 35)  (  4, 35, 35)  (  4, 35, 35)  (  4, 35, 35)
  0  0.1940E-07  0  0.1514E-07  0  0.1233E-07  0  0.7567E-08  0  0.7339E-08
   (  4, 35, 35)  (  4, 35, 35)  (  4, 35, 35)  (  3, 36, 35)  (  3, 36, 35)
  1  0.7296E-08
   (  3, 36, 35)



 OUTPUT CONTROL FOR STRESS PERIOD  107   TIME STEP    1
    SAVE HEAD FOR ALL LAYERS
    SAVE DRAWDOWN FOR ALL LAYERS
    SAVE BUDGET
    PRINT BUDGET
 UBDSV1 SAVING "         STORAGE" ON UNIT   9 AT TIME STEP  1, STRESS PERIOD 107
 UBDSV2 SAVING "   CONSTANT HEAD" ON UNIT   9 AT TIME STEP  1, STRESS PERIOD 107
 UBDSV1 SAVING "FLOW RIGHT FACE " ON UNIT   9 AT TIME STEP  1, STRESS PERIOD 107
 UBDSV1 SAVING "FLOW FRONT FACE " ON UNIT   9 AT TIME STEP  1, STRESS PERIOD 107
 UBDSV1 SAVING "FLOW LOWER FACE " ON UNIT   9 AT TIME STEP  1, STRESS PERIOD 107
 UBDSV3 SAVING "        RECHARGE" ON UNIT   9 AT TIME STEP  1, STRESS PERIOD 107

 HEAD WILL BE SAVED ON UNIT   37 AT END OF TIME STEP    1, STRESS PERIOD  107

 DRAWDOWN WILL BE SAVED ON UNIT   38 AT END OF TIME STEP    1, STRESS PERIOD  107
1
  VOLUMETRIC BUDGET FOR ENTIRE MODEL AT END OF TIME STEP    1, STRESS PERIOD 107
  ------------------------------------------------------------------------------

     CUMULATIVE VOLUMES      L**3       RATES FOR THIS TIME STEP      L**3/T
     ------------------                 ------------------------

           IN:                                      IN:
           ---                                      ---
             STORAGE =       14990.1250               STORAGE =       9.9256E-04
       CONSTANT HEAD =       28661.6953         CONSTANT HEAD =       3.2085E-05
            RECHARGE =        1314.7667              RECHARGE =       1.0213E-04

            TOTAL IN =       44966.5859              TOTAL IN =       1.1268E-03

          OUT:                                     OUT:
          ----                                     ----
             STORAGE =       14787.8525               STORAGE =           0.0000
       CONSTANT HEAD =       30179.9531         CONSTANT HEAD =       1.1270E-03
            RECHARGE =           0.0000              RECHARGE =           0.0000

           TOTAL OUT =       44967.8047             TOTAL OUT =       1.1270E-03

            IN - OUT =          -1.2188              IN - OUT =      -2.4028E-07

 PERCENT DISCREPANCY =          -0.00     PERCENT DISCREPANCY =          -0.02






         TIME SUMMARY AT END OF TIME STEP    1 IN STRESS PERIOD  107
                    SECONDS     MINUTES      HOURS       DAYS        YEARS
                    -----------------------------------------------------------
   TIME STEP LENGTH  86400.      1440.0      24.000      1.0000     2.73785E-03
 STRESS PERIOD TIME  86400.      1440.0      24.000      1.0000     2.73785E-03
         TOTAL TIME 1.28736E+07 2.14560E+05  3576.0      149.00     0.40794    
1
1
                            STRESS PERIOD NO.  108, LENGTH =   86400.00    
                            -----------------------------------------------

                              NUMBER OF TIME STEPS =     1

                               MULTIPLIER FOR DELT =     1.000

                            INITIAL TIME STEP SIZE =   86400.00    

 REUSING RECH FROM LAST STRESS PERIOD

 CHD NO.   LAYER   ROW   COL    START HEAD        END HEAD         IFACE           
 ----------------------------------------------------------------------------------
      1      4      3      1       110.7           110.6           0.000    
      2      5      3      1       110.7           110.6           0.000    
      3      4      3      2       110.7           110.6           0.000    
      4      5      3      2       110.7           110.6           0.000    
      5      4      3      3       110.7           110.6           0.000    
      6      5      3      3       110.7           110.6           0.000    
      7      4      3      4       110.7           110.6           0.000    
      8      5      3      4       110.7           110.6           0.000    
      9      4      3      5       110.7           110.6           0.000    
     10      5      3      5       110.7           110.6           0.000    
     11      4      3      6       110.7           110.6           0.000    
     12      5      3      6       110.7           110.6           0.000    
     13      4      3      7       110.7           110.6           0.000    
     14      5      3      7       110.7           110.6           0.000    
     15      4      3      8       110.7           110.6           0.000    
     16      5      3      8       110.7           110.6           0.000    
     17      4      2      8       110.7           110.6           0.000    
     18      5      2      8       110.7           110.6           0.000    
     19      4      2      9       110.7           110.6           0.000    
     20      5      2      9       110.7           110.6           0.000    
     21      4      2     10       110.7           110.6           0.000    
     22      5      2     10       110.7           110.6           0.000    
     23      4      2     11       110.7           110.6           0.000    
     24      5      2     11       110.7           110.6           0.000    
     25      4      2     12       110.7           110.6           0.000    
     26      5      2     12       110.7           110.6           0.000    
     27      4      2     13       110.7           110.6           0.000    
     28      5      2     13       110.7           110.6           0.000    
     29      4      2     14       110.7           110.6           0.000    
     30      5      2     14       110.7           110.6           0.000    
     31      4      2     15       110.7           110.6           0.000    
     32      5      2     15       110.7           110.6           0.000    
     33      4      2     16       110.7           110.6           0.000    
     34      5      2     16       110.7           110.6           0.000    
     35      4      2     17       110.7           110.6           0.000    
     36      5      2     17       110.7           110.6           0.000    
     37      4      2     18       110.7           110.6           0.000    
     38      5      2     18       110.7           110.6           0.000    
     39      4      2     19       110.7           110.6           0.000    
     40      5      2     19       110.7           110.6           0.000    
     41      4      2     20       110.7           110.6           0.000    
     42      5      2     20       110.7           110.6           0.000    
     43      4      2     21       110.7           110.6           0.000    
     44      5      2     21       110.7           110.6           0.000    
     45      4      2     22       110.7           110.6           0.000    
     46      5      2     22       110.7           110.6           0.000    
     47      4      2     23       110.7           110.6           0.000    
     48      5      2     23       110.7           110.6           0.000    
     49      4      2     24       110.7           110.6           0.000    
     50      5      2     24       110.7           110.6           0.000    
     51      4      2     25       110.7           110.6           0.000    
     52      5      2     25       110.7           110.6           0.000    
     53      4      2     26       110.7           110.6           0.000    
     54      5      2     26       110.7           110.6           0.000    
     55      4      1     26       110.7           110.6           0.000    
     56      5      1     26       110.7           110.6           0.000    
     57      4      1     27       110.7           110.6           0.000    
     58      5      1     27       110.7           110.6           0.000    
     59      4      1     28       110.7           110.6           0.000    
     60      5      1     28       110.7           110.6           0.000    
     61      4      1     29       110.7           110.6           0.000    
     62      5      1     29       110.7           110.6           0.000    
     63      4      1     30       110.7           110.6           0.000    
     64      5      1     30       110.7           110.6           0.000    
     65      4      1     31       110.7           110.6           0.000    
     66      5      1     31       110.7           110.6           0.000    
     67      4      1     32       110.7           110.6           0.000    
     68      5      1     32       110.7           110.6           0.000    
     69      4      1     33       110.7           110.6           0.000    
     70      5      1     33       110.7           110.6           0.000    
     71      4      1     34       110.7           110.6           0.000    
     72      5      1     34       110.7           110.6           0.000    
     73      4      1     35       110.7           110.6           0.000    
     74      5      1     35       110.7           110.6           0.000    
     75      4     36     35       110.7           110.5           0.000    
     76      5     36     35       110.7           110.5           0.000    
     77      4     35     34       110.7           110.5           0.000    
     78      5     35     34       110.7           110.5           0.000    
     79      4     36     34       110.7           110.5           0.000    
     80      5     36     34       110.7           110.5           0.000    
     81      4     36     33       110.7           110.5           0.000    
     82      5     36     33       110.7           110.5           0.000    
     83      4     36     32       110.7           110.5           0.000    
     84      5     36     32       110.7           110.5           0.000    
     85      4     37     32       110.7           110.5           0.000    
     86      5     37     32       110.7           110.5           0.000    
     87      4     37     31       110.7           110.5           0.000    
     88      5     37     31       110.7           110.5           0.000    
     89      4     38     31       110.7           110.5           0.000    
     90      5     38     31       110.7           110.5           0.000    
     91      4     38     30       110.7           110.5           0.000    
     92      5     38     30       110.7           110.5           0.000    
     93      4     39     30       110.7           110.5           0.000    
     94      5     39     30       110.7           110.5           0.000    
     95      4     39     29       110.7           110.5           0.000    
     96      5     39     29       110.7           110.5           0.000    
     97      4     40     29       110.7           110.5           0.000    
     98      5     40     29       110.7           110.5           0.000    
     99      4     40     28       110.7           110.5           0.000    
    100      5     40     28       110.7           110.5           0.000    
    101      4     40     27       110.7           110.5           0.000    
    102      5     40     27       110.7           110.5           0.000    
    103      4     41     27       110.7           110.5           0.000    
    104      5     41     27       110.7           110.5           0.000    
    105      4     41     26       110.7           110.5           0.000    
    106      5     41     26       110.7           110.5           0.000    
    107      4     41     25       110.7           110.5           0.000    
    108      5     41     25       110.7           110.5           0.000    
    109      4     41     24       110.7           110.5           0.000    
    110      5     41     24       110.7           110.5           0.000    
    111      4     41     23       110.7           110.5           0.000    
    112      5     41     23       110.7           110.5           0.000    
    113      4     41     22       110.7           110.5           0.000    
    114      5     41     22       110.7           110.5           0.000    
    115      4     42     22       110.7           110.5           0.000    
    116      5     42     22       110.7           110.5           0.000    
    117      4     42     21       110.7           110.5           0.000    
    118      5     42     21       110.7           110.5           0.000    
    119      4     42     20       110.7           110.5           0.000    
    120      5     42     20       110.7           110.5           0.000    
    121      4     42     19       110.7           110.5           0.000    
    122      5     42     19       110.7           110.5           0.000    
    123      4     43     18       110.7           110.5           0.000    
    124      5     43     18       110.7           110.5           0.000    
    125      4     42     18       110.7           110.5           0.000    
    126      5     42     18       110.7           110.5           0.000    
    127      4     42     17       110.7           110.5           0.000    
    128      5     42     17       110.7           110.5           0.000    
    129      4     42     16       110.7           110.5           0.000    
    130      5     42     16       110.7           110.5           0.000    
    131      4     42     15       110.7           110.5           0.000    
    132      5     42     15       110.7           110.5           0.000    
    133      4     43     15       110.7           110.5           0.000    
    134      5     43     15       110.7           110.5           0.000    
    135      4     43     14       110.7           110.5           0.000    
    136      5     43     14       110.7           110.5           0.000    
    137      4     43     13       110.7           110.5           0.000    
    138      5     43     13       110.7           110.5           0.000    
    139      4     43     12       110.7           110.5           0.000    
    140      5     43     12       110.7           110.5           0.000    
    141      4     43     11       110.7           110.5           0.000    
    142      5     43     11       110.7           110.5           0.000    
    143      4     43     10       110.7           110.5           0.000    
    144      5     43     10       110.7           110.5           0.000    
    145      4     44     10       110.7           110.5           0.000    
    146      5     44     10       110.7           110.5           0.000    
    147      4     44      9       110.7           110.5           0.000    
    148      5     44      9       110.7           110.5           0.000    
    149      4     44      8       110.7           110.5           0.000    
    150      5     44      8       110.7           110.5           0.000    
    151      4     44      7       110.7           110.5           0.000    
    152      5     44      7       110.7           110.5           0.000    
    153      4     44      6       110.7           110.5           0.000    
    154      5     44      6       110.7           110.5           0.000    
    155      4     44      5       110.7           110.5           0.000    
    156      5     44      5       110.7           110.5           0.000    
    157      4     44      4       110.7           110.5           0.000    
    158      5     44      4       110.7           110.5           0.000    
    159      4     44      3       110.7           110.5           0.000    
    160      5     44      3       110.7           110.5           0.000    
    161      4     45      3       110.7           110.5           0.000    
    162      5     45      3       110.7           110.5           0.000    
    163      4     45      2       110.7           110.5           0.000    
    164      5     45      2       110.7           110.5           0.000    
    165      4     45      1       110.7           110.5           0.000    
    166      5     45      1       110.7           110.5           0.000    


    166 TIME-VARIANT SPECIFIED-HEAD CELLS

 SOLVING FOR HEAD 


     4 CALLS TO PCG ROUTINE FOR TIME STEP   1 IN STRESS PERIOD  108
    73 TOTAL ITERATIONS

 MAXIMUM HEAD CHANGE FOR EACH ITERATION (1 INDICATES THE FIRST INNER ITERATION):

    HEAD CHANGE    HEAD CHANGE    HEAD CHANGE    HEAD CHANGE    HEAD CHANGE 
   LAYER,ROW,COL  LAYER,ROW,COL  LAYER,ROW,COL  LAYER,ROW,COL  LAYER,ROW,COL
 ---------------------------------------------------------------------------
  1 -0.7380      0  0.4039      0 -0.2360      0  0.2073      0 -0.2681    
   (  5, 43,  5)  (  5, 35,  1)  (  5, 30,  2)  (  5, 41,  2)  (  5, 37,  1)
  0 -0.1488      0 -0.1754      0  0.1915      0  0.1063      0  0.8698E-01
   (  5, 39,  1)  (  5, 40,  1)  (  5, 37,  1)  (  5, 37,  6)  (  5, 40,  2)
  0  0.7435E-01  0  0.4140E-01  0 -0.4271E-01  0  0.4687E-01  0 -0.3627E-01
   (  5, 36, 10)  (  5, 28,  2)  (  5, 33,  9)  (  5, 30,  9)  (  5, 36,  9)
  0 -0.2061E-01  0  0.1980E-01  0  0.1828E-01  0  0.1233E-01  0  0.1226E-01
   (  5, 35,  2)  (  5, 37,  1)  (  5, 15,  1)  (  5, 30, 10)  (  5, 36,  7)
  0  0.7719E-02  0  0.8836E-02  0 -0.3630E-02  0 -0.7614E-02  0  0.5630E-02
   (  5, 38,  3)  (  5, 32,  4)  (  5, 29,  1)  (  5, 13,  1)  (  5, 13,  1)
  0  0.3918E-02  0  0.2132E-02  0 -0.2032E-02  0  0.2379E-02  0 -0.1526E-02
   (  5, 37,  1)  (  5, 34,  3)  (  5, 35,  1)  (  5, 38,  1)  (  5, 12,  1)
  1  0.1182E-02  0  0.6933E-03  0 -0.1318E-02  0 -0.6477E-03  0  0.6642E-03
   (  5, 12,  1)  (  5, 32,  3)  (  5, 41,  2)  (  5, 22,  3)  (  5, 30,  8)
  0  0.7806E-03  0 -0.5484E-03  0  0.6811E-03  0  0.3985E-03  0  0.3557E-03
   (  5, 34,  2)  (  5, 36,  2)  (  5, 37,  1)  (  5, 30,  9)  (  5, 37,  1)
  0 -0.3761E-03  0  0.1803E-03  0  0.1602E-03  0 -0.2160E-03  0 -0.1198E-03
   (  5, 39,  1)  (  5, 41,  2)  (  5, 32,  4)  (  5, 34,  8)  (  5, 34,  3)
  0  0.9036E-04  0  0.7733E-04  0 -0.7542E-04  0 -0.6625E-04  0 -0.5888E-04
   (  5, 39,  1)  (  5, 33,  1)  (  5, 36,  1)  (  5, 41,  1)  (  5, 36,  9)
  0 -0.2854E-04  0  0.2925E-04  0 -0.2898E-04  0 -0.2678E-04  0  0.1850E-04
   (  5, 39,  5)  (  5, 32,  5)  (  5, 30,  2)  (  5, 38,  1)  (  5, 15,  1)
  0  0.1997E-04  0 -0.1310E-04  0  0.1049E-04  0 -0.6683E-05  0  0.3926E-05
   (  5, 40,  1)  (  5, 42,  1)  (  5, 43,  6)  (  5, 35,  1)  (  5, 34,  4)
  1  0.4380E-05  0 -0.4275E-05  0  0.6508E-05  0 -0.4617E-05  0  0.4153E-05
   (  5, 30,  5)  (  5, 31,  2)  (  5, 34,  3)  (  5, 36,  1)  (  5, 39,  1)
  0  0.3410E-05  0 -0.2066E-05  0  0.1984E-05  0  0.1440E-05  0 -0.1207E-05
   (  5, 36,  2)  (  5, 38,  3)  (  5, 38,  1)  (  5, 35,  5)  (  5, 36,  7)
  0 -0.1038E-05  0  0.9446E-06  1 -0.5361E-06
   (  5, 16,  1)  (  5, 40,  1)  (  5, 30,  3)

 MAXIMUM RESIDUAL FOR EACH ITERATION (1 INDICATES THE FIRST INNER ITERATION):

    RESIDUAL       RESIDUAL       RESIDUAL       RESIDUAL       RESIDUAL    
   LAYER,ROW,COL  LAYER,ROW,COL  LAYER,ROW,COL  LAYER,ROW,COL  LAYER,ROW,COL
 ---------------------------------------------------------------------------
  1  0.3667E-02  0  0.2794E-02  0  0.2352E-02  0  0.2089E-02  0  0.1765E-02
   (  4, 44,  2)  (  4, 44,  2)  (  4, 44,  2)  (  4, 35, 35)  (  4, 35, 35)
  0  0.1495E-02  0  0.1263E-02  0  0.1005E-02  0  0.8047E-03  0  0.6165E-03
   (  4, 35, 35)  (  3, 40, 27)  (  3, 40, 27)  (  3, 40, 27)  (  3, 40, 27)
  0 -0.4700E-03  0 -0.4136E-03  0 -0.3758E-03  0 -0.3061E-03  0 -0.2371E-03
   (  3, 35, 35)  (  3, 35, 35)  (  3, 35, 35)  (  3, 35, 35)  (  3, 35, 35)
  0 -0.2153E-03  0 -0.1740E-03  0 -0.1317E-03  0 -0.1087E-03  0 -0.8968E-04
   (  3, 35, 35)  (  4, 43,  4)  (  4, 44,  2)  (  4, 44,  2)  (  4, 34, 35)
  0 -0.8325E-04  0 -0.7134E-04  0 -0.6902E-04  0 -0.5605E-04  0 -0.4514E-04
   (  4, 34, 35)  (  4, 34, 35)  (  4, 34, 35)  (  4, 34, 35)  (  4, 34, 35)
  0 -0.3582E-04  0 -0.3275E-04  0 -0.3002E-04  0 -0.2345E-04  0 -0.1659E-04
   (  4, 34, 35)  (  4, 34, 35)  (  4, 34, 35)  (  4, 34, 35)  (  4, 34, 35)
  1 -0.1546E-04  0 -0.1514E-04  0 -0.1187E-04  0 -0.1066E-04  0 -0.9284E-05
   (  4, 34, 35)  (  4, 34, 35)  (  4, 34, 35)  (  4, 34, 35)  (  4, 34, 35)
  0 -0.7687E-05  0 -0.6920E-05  0 -0.5760E-05  0 -0.4932E-05  0 -0.4089E-05
   (  4, 34, 35)  (  4, 34, 35)  (  4, 34, 35)  (  4, 34, 35)  (  4, 34, 35)
  0 -0.3351E-05  0  0.2879E-05  0  0.2677E-05  0  0.2148E-05  0  0.1617E-05
   (  4, 34, 35)  (  4, 35, 35)  (  4, 35, 35)  (  4, 35, 35)  (  4, 35, 35)
  0  0.1218E-05  0  0.1071E-05  0  0.8455E-06  0  0.6387E-06  0  0.4894E-06
   (  4, 35, 35)  (  4, 35, 35)  (  4, 35, 35)  (  4, 35, 35)  (  4, 35, 35)
  0  0.4370E-06  0  0.3881E-06  0  0.3228E-06  0  0.2325E-06  0  0.1673E-06
   (  4, 35, 35)  (  4, 35, 35)  (  4, 35, 35)  (  4, 35, 35)  (  4, 35, 35)
  0  0.1239E-06  0  0.8974E-07  0  0.6406E-07  0  0.5258E-07  0  0.4663E-07
   (  4, 35, 35)  (  4, 35, 35)  (  4, 35, 35)  (  4, 35, 35)  (  4, 35, 35)
  1  0.4545E-07  0  0.4395E-07  0  0.3906E-07  0  0.3685E-07  0  0.2846E-07
   (  4, 35, 35)  (  4, 35, 35)  (  4, 35, 35)  (  4, 35, 35)  (  4, 35, 35)
  0  0.2499E-07  0  0.2356E-07  0  0.2161E-07  0  0.1934E-07  0  0.1702E-07
   (  4, 35, 35)  (  4, 35, 35)  (  4, 35, 35)  (  4, 35, 35)  (  4, 35, 35)
  0  0.1455E-07  0  0.1261E-07  1  0.1257E-07
   (  4, 35, 35)  (  4, 35, 35)  (  4, 35, 35)



 OUTPUT CONTROL FOR STRESS PERIOD  108   TIME STEP    1
    SAVE HEAD FOR ALL LAYERS
    SAVE DRAWDOWN FOR ALL LAYERS
    SAVE BUDGET
    PRINT BUDGET
 UBDSV1 SAVING "         STORAGE" ON UNIT   9 AT TIME STEP  1, STRESS PERIOD 108
 UBDSV2 SAVING "   CONSTANT HEAD" ON UNIT   9 AT TIME STEP  1, STRESS PERIOD 108
 UBDSV1 SAVING "FLOW RIGHT FACE " ON UNIT   9 AT TIME STEP  1, STRESS PERIOD 108
 UBDSV1 SAVING "FLOW FRONT FACE " ON UNIT   9 AT TIME STEP  1, STRESS PERIOD 108
 UBDSV1 SAVING "FLOW LOWER FACE " ON UNIT   9 AT TIME STEP  1, STRESS PERIOD 108
 UBDSV3 SAVING "        RECHARGE" ON UNIT   9 AT TIME STEP  1, STRESS PERIOD 108

 HEAD WILL BE SAVED ON UNIT   37 AT END OF TIME STEP    1, STRESS PERIOD  108

 DRAWDOWN WILL BE SAVED ON UNIT   38 AT END OF TIME STEP    1, STRESS PERIOD  108
1
  VOLUMETRIC BUDGET FOR ENTIRE MODEL AT END OF TIME STEP    1, STRESS PERIOD 108
  ------------------------------------------------------------------------------

     CUMULATIVE VOLUMES      L**3       RATES FOR THIS TIME STEP      L**3/T
     ------------------                 ------------------------

           IN:                                      IN:
           ---                                      ---
             STORAGE =       15446.8076               STORAGE =       5.2857E-03
       CONSTANT HEAD =       28661.6953         CONSTANT HEAD =           0.0000
            RECHARGE =        1323.5907              RECHARGE =       1.0213E-04

            TOTAL IN =       45432.0938              TOTAL IN =       5.3878E-03

          OUT:                                     OUT:
          ----                                     ----
             STORAGE =       14787.8525               STORAGE =           0.0000
       CONSTANT HEAD =       30645.4805         CONSTANT HEAD =       5.3881E-03
            RECHARGE =           0.0000              RECHARGE =           0.0000

           TOTAL OUT =       45433.3320             TOTAL OUT =       5.3881E-03

            IN - OUT =          -1.2383              IN - OUT =      -2.4773E-07

 PERCENT DISCREPANCY =          -0.00     PERCENT DISCREPANCY =          -0.00






         TIME SUMMARY AT END OF TIME STEP    1 IN STRESS PERIOD  108
                    SECONDS     MINUTES      HOURS       DAYS        YEARS
                    -----------------------------------------------------------
   TIME STEP LENGTH  86400.      1440.0      24.000      1.0000     2.73785E-03
 STRESS PERIOD TIME  86400.      1440.0      24.000      1.0000     2.73785E-03
         TOTAL TIME 1.29600E+07 2.16000E+05  3600.0      150.00     0.41068    
1
1
                            STRESS PERIOD NO.  109, LENGTH =   172800.0    
                            -----------------------------------------------

                              NUMBER OF TIME STEPS =     2

                               MULTIPLIER FOR DELT =     1.000

                            INITIAL TIME STEP SIZE =   86400.00    

 REUSING RECH FROM LAST STRESS PERIOD

 CHD NO.   LAYER   ROW   COL    START HEAD        END HEAD         IFACE           
 ----------------------------------------------------------------------------------
      1      4      3      1       110.6           110.5           0.000    
      2      5      3      1       110.6           110.5           0.000    
      3      4      3      2       110.6           110.5           0.000    
      4      5      3      2       110.6           110.5           0.000    
      5      4      3      3       110.6           110.5           0.000    
      6      5      3      3       110.6           110.5           0.000    
      7      4      3      4       110.6           110.5           0.000    
      8      5      3      4       110.6           110.5           0.000    
      9      4      3      5       110.6           110.5           0.000    
     10      5      3      5       110.6           110.5           0.000    
     11      4      3      6       110.6           110.5           0.000    
     12      5      3      6       110.6           110.5           0.000    
     13      4      3      7       110.6           110.5           0.000    
     14      5      3      7       110.6           110.5           0.000    
     15      4      3      8       110.6           110.5           0.000    
     16      5      3      8       110.6           110.5           0.000    
     17      4      2      8       110.6           110.5           0.000    
     18      5      2      8       110.6           110.5           0.000    
     19      4      2      9       110.6           110.5           0.000    
     20      5      2      9       110.6           110.5           0.000    
     21      4      2     10       110.6           110.5           0.000    
     22      5      2     10       110.6           110.5           0.000    
     23      4      2     11       110.6           110.5           0.000    
     24      5      2     11       110.6           110.5           0.000    
     25      4      2     12       110.6           110.5           0.000    
     26      5      2     12       110.6           110.5           0.000    
     27      4      2     13       110.6           110.5           0.000    
     28      5      2     13       110.6           110.5           0.000    
     29      4      2     14       110.6           110.5           0.000    
     30      5      2     14       110.6           110.5           0.000    
     31      4      2     15       110.6           110.5           0.000    
     32      5      2     15       110.6           110.5           0.000    
     33      4      2     16       110.6           110.5           0.000    
     34      5      2     16       110.6           110.5           0.000    
     35      4      2     17       110.6           110.5           0.000    
     36      5      2     17       110.6           110.5           0.000    
     37      4      2     18       110.6           110.5           0.000    
     38      5      2     18       110.6           110.5           0.000    
     39      4      2     19       110.6           110.5           0.000    
     40      5      2     19       110.6           110.5           0.000    
     41      4      2     20       110.6           110.5           0.000    
     42      5      2     20       110.6           110.5           0.000    
     43      4      2     21       110.6           110.5           0.000    
     44      5      2     21       110.6           110.5           0.000    
     45      4      2     22       110.6           110.5           0.000    
     46      5      2     22       110.6           110.5           0.000    
     47      4      2     23       110.6           110.5           0.000    
     48      5      2     23       110.6           110.5           0.000    
     49      4      2     24       110.6           110.5           0.000    
     50      5      2     24       110.6           110.5           0.000    
     51      4      2     25       110.6           110.5           0.000    
     52      5      2     25       110.6           110.5           0.000    
     53      4      2     26       110.6           110.5           0.000    
     54      5      2     26       110.6           110.5           0.000    
     55      4      1     26       110.6           110.5           0.000    
     56      5      1     26       110.6           110.5           0.000    
     57      4      1     27       110.6           110.5           0.000    
     58      5      1     27       110.6           110.5           0.000    
     59      4      1     28       110.6           110.5           0.000    
     60      5      1     28       110.6           110.5           0.000    
     61      4      1     29       110.6           110.5           0.000    
     62      5      1     29       110.6           110.5           0.000    
     63      4      1     30       110.6           110.5           0.000    
     64      5      1     30       110.6           110.5           0.000    
     65      4      1     31       110.6           110.5           0.000    
     66      5      1     31       110.6           110.5           0.000    
     67      4      1     32       110.6           110.5           0.000    
     68      5      1     32       110.6           110.5           0.000    
     69      4      1     33       110.6           110.5           0.000    
     70      5      1     33       110.6           110.5           0.000    
     71      4      1     34       110.6           110.5           0.000    
     72      5      1     34       110.6           110.5           0.000    
     73      4      1     35       110.6           110.5           0.000    
     74      5      1     35       110.6           110.5           0.000    
     75      4     36     35       110.5           110.3           0.000    
     76      5     36     35       110.5           110.3           0.000    
     77      4     35     34       110.5           110.3           0.000    
     78      5     35     34       110.5           110.3           0.000    
     79      4     36     34       110.5           110.3           0.000    
     80      5     36     34       110.5           110.3           0.000    
     81      4     36     33       110.5           110.3           0.000    
     82      5     36     33       110.5           110.3           0.000    
     83      4     36     32       110.5           110.3           0.000    
     84      5     36     32       110.5           110.3           0.000    
     85      4     37     32       110.5           110.3           0.000    
     86      5     37     32       110.5           110.3           0.000    
     87      4     37     31       110.5           110.3           0.000    
     88      5     37     31       110.5           110.3           0.000    
     89      4     38     31       110.5           110.3           0.000    
     90      5     38     31       110.5           110.3           0.000    
     91      4     38     30       110.5           110.3           0.000    
     92      5     38     30       110.5           110.3           0.000    
     93      4     39     30       110.5           110.3           0.000    
     94      5     39     30       110.5           110.3           0.000    
     95      4     39     29       110.5           110.3           0.000    
     96      5     39     29       110.5           110.3           0.000    
     97      4     40     29       110.5           110.3           0.000    
     98      5     40     29       110.5           110.3           0.000    
     99      4     40     28       110.5           110.3           0.000    
    100      5     40     28       110.5           110.3           0.000    
    101      4     40     27       110.5           110.3           0.000    
    102      5     40     27       110.5           110.3           0.000    
    103      4     41     27       110.5           110.3           0.000    
    104      5     41     27       110.5           110.3           0.000    
    105      4     41     26       110.5           110.3           0.000    
    106      5     41     26       110.5           110.3           0.000    
    107      4     41     25       110.5           110.3           0.000    
    108      5     41     25       110.5           110.3           0.000    
    109      4     41     24       110.5           110.3           0.000    
    110      5     41     24       110.5           110.3           0.000    
    111      4     41     23       110.5           110.3           0.000    
    112      5     41     23       110.5           110.3           0.000    
    113      4     41     22       110.5           110.3           0.000    
    114      5     41     22       110.5           110.3           0.000    
    115      4     42     22       110.5           110.3           0.000    
    116      5     42     22       110.5           110.3           0.000    
    117      4     42     21       110.5           110.3           0.000    
    118      5     42     21       110.5           110.3           0.000    
    119      4     42     20       110.5           110.3           0.000    
    120      5     42     20       110.5           110.3           0.000    
    121      4     42     19       110.5           110.3           0.000    
    122      5     42     19       110.5           110.3           0.000    
    123      4     43     18       110.5           110.3           0.000    
    124      5     43     18       110.5           110.3           0.000    
    125      4     42     18       110.5           110.3           0.000    
    126      5     42     18       110.5           110.3           0.000    
    127      4     42     17       110.5           110.3           0.000    
    128      5     42     17       110.5           110.3           0.000    
    129      4     42     16       110.5           110.3           0.000    
    130      5     42     16       110.5           110.3           0.000    
    131      4     42     15       110.5           110.3           0.000    
    132      5     42     15       110.5           110.3           0.000    
    133      4     43     15       110.5           110.3           0.000    
    134      5     43     15       110.5           110.3           0.000    
    135      4     43     14       110.5           110.3           0.000    
    136      5     43     14       110.5           110.3           0.000    
    137      4     43     13       110.5           110.3           0.000    
    138      5     43     13       110.5           110.3           0.000    
    139      4     43     12       110.5           110.2           0.000    
    140      5     43     12       110.5           110.2           0.000    
    141      4     43     11       110.5           110.2           0.000    
    142      5     43     11       110.5           110.2           0.000    
    143      4     43     10       110.5           110.2           0.000    
    144      5     43     10       110.5           110.2           0.000    
    145      4     44     10       110.5           110.2           0.000    
    146      5     44     10       110.5           110.2           0.000    
    147      4     44      9       110.5           110.2           0.000    
    148      5     44      9       110.5           110.2           0.000    
    149      4     44      8       110.5           110.2           0.000    
    150      5     44      8       110.5           110.2           0.000    
    151      4     44      7       110.5           110.2           0.000    
    152      5     44      7       110.5           110.2           0.000    
    153      4     44      6       110.5           110.2           0.000    
    154      5     44      6       110.5           110.2           0.000    
    155      4     44      5       110.5           110.2           0.000    
    156      5     44      5       110.5           110.2           0.000    
    157      4     44      4       110.5           110.2           0.000    
    158      5     44      4       110.5           110.2           0.000    
    159      4     44      3       110.5           110.2           0.000    
    160      5     44      3       110.5           110.2           0.000    
    161      4     45      3       110.5           110.2           0.000    
    162      5     45      3       110.5           110.2           0.000    
    163      4     45      2       110.5           110.2           0.000    
    164      5     45      2       110.5           110.2           0.000    
    165      4     45      1       110.5           110.2           0.000    
    166      5     45      1       110.5           110.2           0.000    


    166 TIME-VARIANT SPECIFIED-HEAD CELLS

 SOLVING FOR HEAD 


     4 CALLS TO PCG ROUTINE FOR TIME STEP   1 IN STRESS PERIOD  109
    69 TOTAL ITERATIONS

 MAXIMUM HEAD CHANGE FOR EACH ITERATION (1 INDICATES THE FIRST INNER ITERATION):

    HEAD CHANGE    HEAD CHANGE    HEAD CHANGE    HEAD CHANGE    HEAD CHANGE 
   LAYER,ROW,COL  LAYER,ROW,COL  LAYER,ROW,COL  LAYER,ROW,COL  LAYER,ROW,COL
 ---------------------------------------------------------------------------
  1 -0.3904      0  0.2034      0  0.1254      0  0.1071      0 -0.1282    
   (  5, 43,  5)  (  5, 34,  1)  (  5, 39,  2)  (  5, 41,  2)  (  5, 37,  1)
  0 -0.8281E-01  0 -0.8703E-01  0  0.9436E-01  0  0.5378E-01  0  0.4398E-01
   (  5, 39,  1)  (  5, 40,  1)  (  5, 37,  1)  (  5, 37,  6)  (  5, 40,  2)
  0  0.4051E-01  0 -0.3704E-01  0 -0.1418E-01  0  0.2439E-01  0 -0.1700E-01
   (  5, 35, 10)  (  5, 32,  9)  (  5, 31,  2)  (  5, 30,  9)  (  5, 36,  8)
  0  0.1107E-01  0 -0.9857E-02  0  0.9168E-02  0 -0.6200E-02  0  0.6814E-02
   (  5, 37,  1)  (  5, 34,  1)  (  5, 15,  1)  (  5, 38,  7)  (  5, 38,  4)
  0 -0.4537E-02  0  0.3283E-02  0 -0.2144E-02  0 -0.3599E-02  0  0.2770E-02
   (  5, 37,  1)  (  5, 34,  1)  (  5, 29,  2)  (  5, 13,  1)  (  5, 13,  1)
  0 -0.1802E-02  0 -0.1360E-02  0  0.6916E-03  0 -0.8630E-03  0 -0.7498E-03
   (  5, 12,  1)  (  5, 39,  4)  (  5, 35,  3)  (  5, 34,  4)  (  5, 36,  1)
  1 -0.5649E-03  0  0.4424E-03  0 -0.6446E-03  0 -0.8196E-03  0  0.4488E-03
   (  5, 30,  2)  (  5, 27,  1)  (  5, 37,  1)  (  5, 35,  3)  (  5, 38,  4)
  0  0.3321E-03  0 -0.2178E-03  0  0.2641E-03  0  0.1892E-03  0  0.1716E-03
   (  5, 30,  9)  (  5, 36,  2)  (  5, 37,  1)  (  5, 30,  9)  (  5, 37,  1)
  0 -0.1341E-03  0  0.9873E-04  0  0.1225E-03  0 -0.1172E-03  0  0.6284E-04
   (  5, 31,  3)  (  5, 35,  3)  (  5, 41,  2)  (  5, 34,  8)  (  5, 25, 12)
  0 -0.5421E-04  0  0.3722E-04  0 -0.3902E-04  0 -0.3101E-04  0  0.1661E-04
   (  5, 13,  1)  (  5, 33,  1)  (  5, 33,  5)  (  5, 30, 11)  (  5, 30,  2)
  0 -0.2998E-04  0  0.2098E-04  0  0.1313E-04  0 -0.1437E-04  0  0.9733E-05
   (  5, 36,  8)  (  5, 37,  7)  (  5, 35,  1)  (  5, 38,  1)  (  5, 40,  6)
  0  0.9861E-05  0  0.7499E-05  0  0.3208E-05  0 -0.3844E-05  0  0.4862E-05
   (  5, 40,  1)  (  5, 37,  1)  (  5, 31,  3)  (  5, 39,  2)  (  5, 43,  6)
  1 -0.2313E-05  0  0.1765E-05  0 -0.1728E-05  0 -0.1958E-05  0  0.1927E-05
   (  5, 34,  2)  (  5, 27,  2)  (  5, 29,  3)  (  5, 37,  1)  (  5, 30,  8)
  0  0.1296E-05  0 -0.1030E-05  0 -0.7834E-06  1 -0.4940E-06
   (  5, 13,  1)  (  5, 37,  2)  (  5, 32,  5)  (  5, 36,  2)

 MAXIMUM RESIDUAL FOR EACH ITERATION (1 INDICATES THE FIRST INNER ITERATION):

    RESIDUAL       RESIDUAL       RESIDUAL       RESIDUAL       RESIDUAL    
   LAYER,ROW,COL  LAYER,ROW,COL  LAYER,ROW,COL  LAYER,ROW,COL  LAYER,ROW,COL
 ---------------------------------------------------------------------------
  1  0.1446E-02  0  0.1116E-02  0  0.1028E-02  0  0.9228E-03  0  0.7716E-03
   (  4, 44,  2)  (  4, 35, 35)  (  4, 35, 35)  (  4, 35, 35)  (  4, 35, 35)
  0  0.6336E-03  0  0.5118E-03  0  0.3976E-03  0 -0.3339E-03  0 -0.2845E-03
   (  4, 35, 35)  (  3, 40, 27)  (  3, 40, 27)  (  4, 43,  5)  (  4, 43,  4)
  0 -0.2315E-03  0 -0.1919E-03  0 -0.1823E-03  0 -0.1462E-03  0 -0.1119E-03
   (  4, 43,  4)  (  4, 43,  4)  (  4, 43,  4)  (  4, 43,  4)  (  4, 44,  2)
  0 -0.9725E-04  0 -0.8959E-04  0 -0.7183E-04  0 -0.5782E-04  0 -0.4492E-04
   (  4, 44,  2)  (  4, 44,  2)  (  4, 44,  2)  (  4, 44,  2)  (  4, 44,  2)
  0 -0.3961E-04  0 -0.3067E-04  0 -0.2894E-04  0 -0.2253E-04  0 -0.1778E-04
   (  4, 44,  2)  (  4, 44,  2)  (  4, 44,  2)  (  4, 34, 35)  (  4, 34, 35)
  0 -0.1351E-04  0 -0.1029E-04  0 -0.9559E-05  0 -0.7888E-05  0 -0.6179E-05
   (  4, 34, 35)  (  4, 34, 35)  (  4, 34, 35)  (  4, 34, 35)  (  4, 34, 35)
  1 -0.5889E-05  0 -0.5718E-05  0 -0.5240E-05  0 -0.4163E-05  0 -0.3816E-05
   (  4, 34, 35)  (  4, 34, 35)  (  4, 34, 35)  (  4, 34, 35)  (  4, 34, 35)
  0 -0.2785E-05  0 -0.2531E-05  0 -0.2037E-05  0 -0.1723E-05  0 -0.1405E-05
   (  4, 34, 35)  (  4, 34, 35)  (  4, 34, 35)  (  4, 34, 35)  (  4, 34, 35)
  0  0.1287E-05  0  0.1187E-05  0  0.9807E-06  0  0.7873E-06  0  0.5739E-06
   (  4, 35, 35)  (  4, 35, 35)  (  4, 35, 35)  (  4, 35, 35)  (  4, 35, 35)
  0  0.4331E-06  0  0.3883E-06  0  0.2764E-06  0  0.2039E-06  0  0.1909E-06
   (  4, 35, 35)  (  4, 35, 35)  (  4, 35, 35)  (  4, 35, 35)  (  4, 35, 35)
  0  0.1444E-06  0  0.1041E-06  0  0.8569E-07  0  0.6572E-07  0  0.4718E-07
   (  4, 35, 35)  (  4, 35, 35)  (  4, 35, 35)  (  4, 35, 35)  (  4, 35, 35)
  0  0.3519E-07  0  0.2780E-07  0  0.2647E-07  0  0.2378E-07  0  0.1705E-07
   (  4, 35, 35)  (  4, 44,  1)  (  4, 44,  1)  (  4, 44,  1)  (  4, 44,  1)
  1  0.1694E-07  0  0.1541E-07  0  0.1472E-07  0  0.1347E-07  0  0.1021E-07
   (  4, 44,  1)  (  4, 44,  1)  (  4, 44,  1)  (  4, 44,  1)  (  3, 36, 35)
  0  0.8211E-08  0  0.7526E-08  0  0.7008E-08  1  0.6773E-08
   (  3, 36, 35)  (  4, 35, 35)  (  4, 35, 35)  (  4, 35, 35)



 OUTPUT CONTROL FOR STRESS PERIOD  109   TIME STEP    1
    SAVE HEAD FOR ALL LAYERS
    SAVE DRAWDOWN FOR ALL LAYERS
    SAVE BUDGET
    PRINT BUDGET
 UBDSV1 SAVING "         STORAGE" ON UNIT   9 AT TIME STEP  1, STRESS PERIOD 109
 UBDSV2 SAVING "   CONSTANT HEAD" ON UNIT   9 AT TIME STEP  1, STRESS PERIOD 109
 UBDSV1 SAVING "FLOW RIGHT FACE " ON UNIT   9 AT TIME STEP  1, STRESS PERIOD 109
 UBDSV1 SAVING "FLOW FRONT FACE " ON UNIT   9 AT TIME STEP  1, STRESS PERIOD 109
 UBDSV1 SAVING "FLOW LOWER FACE " ON UNIT   9 AT TIME STEP  1, STRESS PERIOD 109
 UBDSV3 SAVING "        RECHARGE" ON UNIT   9 AT TIME STEP  1, STRESS PERIOD 109

 HEAD WILL BE SAVED ON UNIT   37 AT END OF TIME STEP    1, STRESS PERIOD  109

 DRAWDOWN WILL BE SAVED ON UNIT   38 AT END OF TIME STEP    1, STRESS PERIOD  109
1
  VOLUMETRIC BUDGET FOR ENTIRE MODEL AT END OF TIME STEP    1, STRESS PERIOD 109
  ------------------------------------------------------------------------------

     CUMULATIVE VOLUMES      L**3       RATES FOR THIS TIME STEP      L**3/T
     ------------------                 ------------------------

           IN:                                      IN:
           ---                                      ---
             STORAGE =       15829.6875               STORAGE =       4.4315E-03
       CONSTANT HEAD =       28673.8906         CONSTANT HEAD =       1.4115E-04
            RECHARGE =        1332.4147              RECHARGE =       1.0213E-04

            TOTAL IN =       45835.9922              TOTAL IN =       4.6748E-03

          OUT:                                     OUT:
          ----                                     ----
             STORAGE =       14787.8525               STORAGE =           0.0000
       CONSTANT HEAD =       31049.4023         CONSTANT HEAD =       4.6750E-03
            RECHARGE =           0.0000              RECHARGE =           0.0000

           TOTAL OUT =       45837.2539             TOTAL OUT =       4.6750E-03

            IN - OUT =          -1.2617              IN - OUT =      -2.4680E-07

 PERCENT DISCREPANCY =          -0.00     PERCENT DISCREPANCY =          -0.01






         TIME SUMMARY AT END OF TIME STEP    1 IN STRESS PERIOD  109
                    SECONDS     MINUTES      HOURS       DAYS        YEARS
                    -----------------------------------------------------------
   TIME STEP LENGTH  86400.      1440.0      24.000      1.0000     2.73785E-03
 STRESS PERIOD TIME  86400.      1440.0      24.000      1.0000     2.73785E-03
         TOTAL TIME 1.30464E+07 2.17440E+05  3624.0      151.00     0.41342    
1

 SOLVING FOR HEAD 
     4 CALLS TO PCG ROUTINE FOR TIME STEP   2 IN STRESS PERIOD  109
    70 TOTAL ITERATIONS

 MAXIMUM HEAD CHANGE FOR EACH ITERATION (1 INDICATES THE FIRST INNER ITERATION):

    HEAD CHANGE    HEAD CHANGE    HEAD CHANGE    HEAD CHANGE    HEAD CHANGE 
   LAYER,ROW,COL  LAYER,ROW,COL  LAYER,ROW,COL  LAYER,ROW,COL  LAYER,ROW,COL
 ---------------------------------------------------------------------------
  1 -0.3935      0  0.2062      0  0.1219      0  0.1076      0 -0.1240    
   (  5, 43,  5)  (  5, 35,  1)  (  5, 40,  2)  (  5, 41,  2)  (  5, 37,  1)
  0 -0.8623E-01  0 -0.8796E-01  0  0.9400E-01  0  0.5476E-01  0  0.4287E-01
   (  5, 39,  1)  (  5, 40,  1)  (  5, 37,  1)  (  5, 36,  6)  (  5, 40,  1)
  0  0.4217E-01  0 -0.2902E-01  0  0.1986E-01  0  0.2418E-01  0 -0.1623E-01
   (  5, 35,  9)  (  5, 32,  9)  (  5, 29,  3)  (  5, 30,  9)  (  5, 36,  9)
  0 -0.1041E-01  0  0.9716E-02  0  0.9093E-02  0  0.6006E-02  0  0.6665E-02
   (  5, 35,  2)  (  5, 37,  1)  (  5, 15,  1)  (  5, 39,  1)  (  5, 36,  7)
  0 -0.3180E-02  0  0.3469E-02  0 -0.2960E-02  0 -0.3292E-02  0  0.2782E-02
   (  5, 28,  1)  (  5, 34,  1)  (  5, 38,  2)  (  5, 13,  1)  (  5, 13,  1)
  0  0.1682E-02  0  0.1017E-02  0 -0.1150E-02  0  0.1231E-02  0 -0.7342E-03
   (  5, 37,  1)  (  5, 34,  3)  (  5, 35,  1)  (  5, 38,  1)  (  5, 34,  4)
  1  0.5475E-03  0 -0.7497E-03  0  0.6064E-03  0 -0.6793E-03  0 -0.5593E-03
   (  5, 30,  2)  (  5, 37,  1)  (  5, 39,  2)  (  5, 34,  3)  (  5, 37,  1)
  0  0.3229E-03  0 -0.2387E-03  0 -0.2513E-03  0 -0.1870E-03  0  0.1681E-03
   (  5, 30,  9)  (  5, 38,  4)  (  5, 32,  8)  (  5, 39,  1)  (  5, 41,  2)
  0 -0.1018E-03  0 -0.1710E-03  0  0.8937E-04  0 -0.1164E-03  0  0.5795E-04
   (  5, 30,  3)  (  5, 39,  1)  (  5, 33,  9)  (  5, 34,  8)  (  5, 29,  6)
  0  0.4608E-04  0 -0.5234E-04  0 -0.4555E-04  0  0.3156E-04  0 -0.2650E-04
   (  5, 37,  4)  (  5, 31,  9)  (  5, 38,  8)  (  5, 36,  6)  (  5, 31,  1)
  0 -0.2190E-04  0  0.2363E-04  0 -0.1691E-04  0  0.1726E-04  0 -0.1008E-04
   (  5, 38,  5)  (  5, 35,  1)  (  5, 38,  1)  (  5, 40,  1)  (  5, 42,  1)
  0  0.9060E-05  0 -0.4179E-05  0  0.4468E-05  0 -0.4586E-05  0  0.3403E-05
   (  5, 37,  1)  (  5, 27,  3)  (  5, 30,  3)  (  5, 33,  3)  (  5, 37,  1)
  1 -0.2507E-05  0  0.2262E-05  0 -0.1751E-05  0  0.1833E-05  0 -0.1947E-05
   (  5, 38,  3)  (  5, 33,  1)  (  5, 29,  3)  (  5, 29,  5)  (  5, 27, 14)
  0  0.1663E-05  0 -0.1238E-05  0  0.1091E-05  0 -0.9394E-06  1  0.5680E-06
   (  5, 41,  2)  (  5, 39,  2)  (  5, 36,  2)  (  5, 14,  1)  (  5, 14,  1)

 MAXIMUM RESIDUAL FOR EACH ITERATION (1 INDICATES THE FIRST INNER ITERATION):

    RESIDUAL       RESIDUAL       RESIDUAL       RESIDUAL       RESIDUAL    
   LAYER,ROW,COL  LAYER,ROW,COL  LAYER,ROW,COL  LAYER,ROW,COL  LAYER,ROW,COL
 ---------------------------------------------------------------------------
  1  0.1433E-02  0  0.1091E-02  0  0.1006E-02  0  0.9056E-03  0  0.7612E-03
   (  4, 44,  2)  (  4, 35, 35)  (  4, 35, 35)  (  4, 35, 35)  (  4, 35, 35)
  0  0.6253E-03  0  0.5061E-03  0 -0.3984E-03  0 -0.3337E-03  0 -0.2829E-03
   (  4, 35, 35)  (  3, 40, 27)  (  4, 43,  5)  (  4, 43,  5)  (  4, 43,  4)
  0 -0.2293E-03  0 -0.2034E-03  0 -0.1807E-03  0 -0.1432E-03  0 -0.1125E-03
   (  4, 43,  4)  (  4, 43,  4)  (  4, 43,  4)  (  4, 43,  4)  (  4, 44,  2)
  0 -0.1064E-03  0 -0.8967E-04  0 -0.7112E-04  0 -0.5697E-04  0 -0.4292E-04
   (  4, 44,  2)  (  4, 44,  2)  (  4, 44,  2)  (  4, 44,  2)  (  4, 44,  2)
  0 -0.3980E-04  0 -0.3138E-04  0 -0.2767E-04  0 -0.2217E-04  0 -0.1756E-04
   (  4, 44,  2)  (  4, 44,  2)  (  4, 44,  2)  (  4, 34, 35)  (  4, 34, 35)
  0 -0.1349E-04  0 -0.1238E-04  0 -0.1088E-04  0 -0.8775E-05  0 -0.6945E-05
   (  4, 34, 35)  (  4, 34, 35)  (  4, 34, 35)  (  4, 34, 35)  (  4, 34, 35)
  1 -0.6918E-05  0 -0.5878E-05  0 -0.5429E-05  0 -0.4801E-05  0 -0.3828E-05
   (  4, 34, 35)  (  4, 34, 35)  (  4, 34, 35)  (  4, 34, 35)  (  4, 34, 35)
  0 -0.3006E-05  0 -0.2658E-05  0 -0.2102E-05  0 -0.1732E-05  0 -0.1467E-05
   (  4, 34, 35)  (  4, 34, 35)  (  4, 34, 35)  (  4, 34, 35)  (  4, 34, 35)
  0 -0.1352E-05  0  0.1149E-05  0  0.9126E-06  0  0.7159E-06  0  0.5451E-06
   (  4, 34, 35)  (  4, 35, 35)  (  4, 35, 35)  (  4, 35, 35)  (  4, 35, 35)
  0  0.4905E-06  0  0.3685E-06  0  0.2597E-06  0  0.2107E-06  0  0.1849E-06
   (  4, 35, 35)  (  4, 35, 35)  (  4, 35, 35)  (  4, 35, 35)  (  4, 35, 35)
  0  0.1370E-06  0  0.1017E-06  0  0.8707E-07  0  0.6243E-07  0  0.4651E-07
   (  4, 35, 35)  (  4, 35, 35)  (  4, 35, 35)  (  4, 35, 35)  (  4, 35, 35)
  0  0.3359E-07  0  0.2964E-07  0  0.2478E-07  0  0.2179E-07  0  0.1847E-07
   (  4, 35, 35)  (  4, 44,  1)  (  4, 44,  1)  (  4, 44,  1)  (  4, 44,  1)
  1  0.1818E-07  0  0.1767E-07  0  0.1678E-07  0  0.1601E-07  0  0.1316E-07
   (  4, 44,  1)  (  4, 44,  1)  (  4, 44,  1)  (  3, 36, 35)  (  3, 36, 35)
  0  0.1035E-07  0  0.9412E-08  0  0.8618E-08  0  0.7409E-08  1  0.7104E-08
   (  3, 36, 35)  (  4, 35, 35)  (  4, 35, 35)  (  4, 35, 35)  (  4, 35, 35)



 OUTPUT CONTROL FOR STRESS PERIOD  109   TIME STEP    2
    SAVE HEAD FOR ALL LAYERS
    SAVE DRAWDOWN FOR ALL LAYERS
    SAVE BUDGET
    PRINT BUDGET
 UBDSV1 SAVING "         STORAGE" ON UNIT   9 AT TIME STEP  2, STRESS PERIOD 109
 UBDSV2 SAVING "   CONSTANT HEAD" ON UNIT   9 AT TIME STEP  2, STRESS PERIOD 109
 UBDSV1 SAVING "FLOW RIGHT FACE " ON UNIT   9 AT TIME STEP  2, STRESS PERIOD 109
 UBDSV1 SAVING "FLOW FRONT FACE " ON UNIT   9 AT TIME STEP  2, STRESS PERIOD 109
 UBDSV1 SAVING "FLOW LOWER FACE " ON UNIT   9 AT TIME STEP  2, STRESS PERIOD 109
 UBDSV3 SAVING "        RECHARGE" ON UNIT   9 AT TIME STEP  2, STRESS PERIOD 109

 HEAD WILL BE SAVED ON UNIT   37 AT END OF TIME STEP    2, STRESS PERIOD  109

 DRAWDOWN WILL BE SAVED ON UNIT   38 AT END OF TIME STEP    2, STRESS PERIOD  109
1
  VOLUMETRIC BUDGET FOR ENTIRE MODEL AT END OF TIME STEP    2, STRESS PERIOD 109
  ------------------------------------------------------------------------------

     CUMULATIVE VOLUMES      L**3       RATES FOR THIS TIME STEP      L**3/T
     ------------------                 ------------------------

           IN:                                      IN:
           ---                                      ---
             STORAGE =       16196.3359               STORAGE =       4.2436E-03
       CONSTANT HEAD =       28712.6777         CONSTANT HEAD =       4.4892E-04
            RECHARGE =        1341.2386              RECHARGE =       1.0213E-04

            TOTAL IN =       46250.2539              TOTAL IN =       4.7947E-03

          OUT:                                     OUT:
          ----                                     ----
             STORAGE =       14787.8525               STORAGE =           0.0000
       CONSTANT HEAD =       31463.6836         CONSTANT HEAD =       4.7949E-03
            RECHARGE =           0.0000              RECHARGE =           0.0000

           TOTAL OUT =       46251.5352             TOTAL OUT =       4.7949E-03

            IN - OUT =          -1.2812              IN - OUT =      -2.4959E-07

 PERCENT DISCREPANCY =          -0.00     PERCENT DISCREPANCY =          -0.01






         TIME SUMMARY AT END OF TIME STEP    2 IN STRESS PERIOD  109
                    SECONDS     MINUTES      HOURS       DAYS        YEARS
                    -----------------------------------------------------------
   TIME STEP LENGTH  86400.      1440.0      24.000      1.0000     2.73785E-03
 STRESS PERIOD TIME 1.72800E+05  2880.0      48.000      2.0000     5.47570E-03
         TOTAL TIME 1.31328E+07 2.18880E+05  3648.0      152.00     0.41615    
1
1
                            STRESS PERIOD NO.  110, LENGTH =   172800.0    
                            -----------------------------------------------

                              NUMBER OF TIME STEPS =     2

                               MULTIPLIER FOR DELT =     1.000

                            INITIAL TIME STEP SIZE =   86400.00    

 REUSING RECH FROM LAST STRESS PERIOD

 CHD NO.   LAYER   ROW   COL    START HEAD        END HEAD         IFACE           
 ----------------------------------------------------------------------------------
      1      4      3      1       110.5           110.3           0.000    
      2      5      3      1       110.5           110.3           0.000    
      3      4      3      2       110.5           110.3           0.000    
      4      5      3      2       110.5           110.3           0.000    
      5      4      3      3       110.5           110.3           0.000    
      6      5      3      3       110.5           110.3           0.000    
      7      4      3      4       110.5           110.3           0.000    
      8      5      3      4       110.5           110.3           0.000    
      9      4      3      5       110.5           110.3           0.000    
     10      5      3      5       110.5           110.3           0.000    
     11      4      3      6       110.5           110.3           0.000    
     12      5      3      6       110.5           110.3           0.000    
     13      4      3      7       110.5           110.3           0.000    
     14      5      3      7       110.5           110.3           0.000    
     15      4      3      8       110.5           110.3           0.000    
     16      5      3      8       110.5           110.3           0.000    
     17      4      2      8       110.5           110.3           0.000    
     18      5      2      8       110.5           110.3           0.000    
     19      4      2      9       110.5           110.3           0.000    
     20      5      2      9       110.5           110.3           0.000    
     21      4      2     10       110.5           110.3           0.000    
     22      5      2     10       110.5           110.3           0.000    
     23      4      2     11       110.5           110.3           0.000    
     24      5      2     11       110.5           110.3           0.000    
     25      4      2     12       110.5           110.3           0.000    
     26      5      2     12       110.5           110.3           0.000    
     27      4      2     13       110.5           110.3           0.000    
     28      5      2     13       110.5           110.3           0.000    
     29      4      2     14       110.5           110.3           0.000    
     30      5      2     14       110.5           110.3           0.000    
     31      4      2     15       110.5           110.3           0.000    
     32      5      2     15       110.5           110.3           0.000    
     33      4      2     16       110.5           110.3           0.000    
     34      5      2     16       110.5           110.3           0.000    
     35      4      2     17       110.5           110.3           0.000    
     36      5      2     17       110.5           110.3           0.000    
     37      4      2     18       110.5           110.3           0.000    
     38      5      2     18       110.5           110.3           0.000    
     39      4      2     19       110.5           110.3           0.000    
     40      5      2     19       110.5           110.3           0.000    
     41      4      2     20       110.5           110.3           0.000    
     42      5      2     20       110.5           110.3           0.000    
     43      4      2     21       110.5           110.3           0.000    
     44      5      2     21       110.5           110.3           0.000    
     45      4      2     22       110.5           110.3           0.000    
     46      5      2     22       110.5           110.3           0.000    
     47      4      2     23       110.5           110.3           0.000    
     48      5      2     23       110.5           110.3           0.000    
     49      4      2     24       110.5           110.3           0.000    
     50      5      2     24       110.5           110.3           0.000    
     51      4      2     25       110.5           110.3           0.000    
     52      5      2     25       110.5           110.3           0.000    
     53      4      2     26       110.5           110.3           0.000    
     54      5      2     26       110.5           110.3           0.000    
     55      4      1     26       110.5           110.3           0.000    
     56      5      1     26       110.5           110.3           0.000    
     57      4      1     27       110.5           110.3           0.000    
     58      5      1     27       110.5           110.3           0.000    
     59      4      1     28       110.5           110.3           0.000    
     60      5      1     28       110.5           110.3           0.000    
     61      4      1     29       110.5           110.3           0.000    
     62      5      1     29       110.5           110.3           0.000    
     63      4      1     30       110.5           110.3           0.000    
     64      5      1     30       110.5           110.3           0.000    
     65      4      1     31       110.5           110.3           0.000    
     66      5      1     31       110.5           110.3           0.000    
     67      4      1     32       110.5           110.3           0.000    
     68      5      1     32       110.5           110.3           0.000    
     69      4      1     33       110.5           110.3           0.000    
     70      5      1     33       110.5           110.3           0.000    
     71      4      1     34       110.5           110.3           0.000    
     72      5      1     34       110.5           110.3           0.000    
     73      4      1     35       110.5           110.3           0.000    
     74      5      1     35       110.5           110.3           0.000    
     75      4     36     35       110.3           109.9           0.000    
     76      5     36     35       110.3           109.9           0.000    
     77      4     35     34       110.3           109.9           0.000    
     78      5     35     34       110.3           109.9           0.000    
     79      4     36     34       110.3           109.9           0.000    
     80      5     36     34       110.3           109.9           0.000    
     81      4     36     33       110.3           109.9           0.000    
     82      5     36     33       110.3           109.9           0.000    
     83      4     36     32       110.3           109.9           0.000    
     84      5     36     32       110.3           109.9           0.000    
     85      4     37     32       110.3           109.9           0.000    
     86      5     37     32       110.3           109.9           0.000    
     87      4     37     31       110.3           109.9           0.000    
     88      5     37     31       110.3           109.9           0.000    
     89      4     38     31       110.3           109.9           0.000    
     90      5     38     31       110.3           109.9           0.000    
     91      4     38     30       110.3           109.9           0.000    
     92      5     38     30       110.3           109.9           0.000    
     93      4     39     30       110.3           109.9           0.000    
     94      5     39     30       110.3           109.9           0.000    
     95      4     39     29       110.3           109.9           0.000    
     96      5     39     29       110.3           109.9           0.000    
     97      4     40     29       110.3           109.9           0.000    
     98      5     40     29       110.3           109.9           0.000    
     99      4     40     28       110.3           109.9           0.000    
    100      5     40     28       110.3           109.9           0.000    
    101      4     40     27       110.3           109.9           0.000    
    102      5     40     27       110.3           109.9           0.000    
    103      4     41     27       110.3           109.9           0.000    
    104      5     41     27       110.3           109.9           0.000    
    105      4     41     26       110.3           109.9           0.000    
    106      5     41     26       110.3           109.9           0.000    
    107      4     41     25       110.3           109.9           0.000    
    108      5     41     25       110.3           109.9           0.000    
    109      4     41     24       110.3           109.9           0.000    
    110      5     41     24       110.3           109.9           0.000    
    111      4     41     23       110.3           109.9           0.000    
    112      5     41     23       110.3           109.9           0.000    
    113      4     41     22       110.3           109.9           0.000    
    114      5     41     22       110.3           109.9           0.000    
    115      4     42     22       110.3           109.9           0.000    
    116      5     42     22       110.3           109.9           0.000    
    117      4     42     21       110.3           109.9           0.000    
    118      5     42     21       110.3           109.9           0.000    
    119      4     42     20       110.3           109.9           0.000    
    120      5     42     20       110.3           109.9           0.000    
    121      4     42     19       110.3           109.9           0.000    
    122      5     42     19       110.3           109.9           0.000    
    123      4     43     18       110.3           109.9           0.000    
    124      5     43     18       110.3           109.9           0.000    
    125      4     42     18       110.3           109.9           0.000    
    126      5     42     18       110.3           109.9           0.000    
    127      4     42     17       110.3           109.9           0.000    
    128      5     42     17       110.3           109.9           0.000    
    129      4     42     16       110.3           109.9           0.000    
    130      5     42     16       110.3           109.9           0.000    
    131      4     42     15       110.3           109.9           0.000    
    132      5     42     15       110.3           109.9           0.000    
    133      4     43     15       110.3           109.9           0.000    
    134      5     43     15       110.3           109.9           0.000    
    135      4     43     14       110.3           109.9           0.000    
    136      5     43     14       110.3           109.9           0.000    
    137      4     43     13       110.3           109.9           0.000    
    138      5     43     13       110.3           109.9           0.000    
    139      4     43     12       110.2           109.9           0.000    
    140      5     43     12       110.2           109.9           0.000    
    141      4     43     11       110.2           109.9           0.000    
    142      5     43     11       110.2           109.9           0.000    
    143      4     43     10       110.2           109.9           0.000    
    144      5     43     10       110.2           109.9           0.000    
    145      4     44     10       110.2           109.9           0.000    
    146      5     44     10       110.2           109.9           0.000    
    147      4     44      9       110.2           109.9           0.000    
    148      5     44      9       110.2           109.9           0.000    
    149      4     44      8       110.2           109.9           0.000    
    150      5     44      8       110.2           109.9           0.000    
    151      4     44      7       110.2           109.9           0.000    
    152      5     44      7       110.2           109.9           0.000    
    153      4     44      6       110.2           109.9           0.000    
    154      5     44      6       110.2           109.9           0.000    
    155      4     44      5       110.2           109.9           0.000    
    156      5     44      5       110.2           109.9           0.000    
    157      4     44      4       110.2           109.9           0.000    
    158      5     44      4       110.2           109.9           0.000    
    159      4     44      3       110.2           109.9           0.000    
    160      5     44      3       110.2           109.9           0.000    
    161      4     45      3       110.2           109.9           0.000    
    162      5     45      3       110.2           109.9           0.000    
    163      4     45      2       110.2           109.9           0.000    
    164      5     45      2       110.2           109.9           0.000    
    165      4     45      1       110.2           109.9           0.000    
    166      5     45      1       110.2           109.9           0.000    


    166 TIME-VARIANT SPECIFIED-HEAD CELLS

 SOLVING FOR HEAD 


     4 CALLS TO PCG ROUTINE FOR TIME STEP   1 IN STRESS PERIOD  110
    72 TOTAL ITERATIONS

 MAXIMUM HEAD CHANGE FOR EACH ITERATION (1 INDICATES THE FIRST INNER ITERATION):

    HEAD CHANGE    HEAD CHANGE    HEAD CHANGE    HEAD CHANGE    HEAD CHANGE 
   LAYER,ROW,COL  LAYER,ROW,COL  LAYER,ROW,COL  LAYER,ROW,COL  LAYER,ROW,COL
 ---------------------------------------------------------------------------
  1 -0.5695      0  0.3038      0 -0.1740      0  0.1571      0 -0.1881    
   (  5, 43,  5)  (  5, 35,  1)  (  5, 30,  2)  (  5, 41,  2)  (  5, 37,  1)
  0 -0.1215      0 -0.1311      0  0.1399      0  0.7982E-01  0  0.6301E-01
   (  5, 39,  1)  (  5, 40,  1)  (  5, 37,  1)  (  5, 37,  6)  (  5, 40,  2)
  0  0.5951E-01  0 -0.5922E-01  0  0.2023E-01  0  0.3155E-01  0 -0.2583E-01
   (  5, 35,  9)  (  5, 32,  9)  (  5, 31,  4)  (  5, 30,  9)  (  5, 36,  8)
  0  0.1283E-01  0  0.1463E-01  0  0.1314E-01  0  0.8816E-02  0  0.9134E-02
   (  5, 37,  1)  (  5, 34,  9)  (  5, 15,  1)  (  5, 31, 11)  (  5, 36,  7)
  0  0.5812E-02  0  0.3889E-02  0 -0.3734E-02  0  0.4570E-02  0  0.4097E-02
   (  5, 14,  1)  (  5, 32,  4)  (  5, 38,  2)  (  5, 35,  1)  (  5, 13,  1)
  0 -0.2208E-02  0  0.1279E-02  0 -0.1975E-02  0  0.1616E-02  0 -0.1124E-02
   (  5, 12,  1)  (  5, 35,  3)  (  5, 39,  4)  (  5, 38,  1)  (  5, 36,  1)
  1 -0.9430E-03  0  0.6505E-03  0 -0.1136E-02  0  0.6298E-03  0 -0.5265E-03
   (  5, 32,  5)  (  5, 32,  3)  (  5, 41,  2)  (  5, 38,  4)  (  5, 34,  3)
  0  0.7939E-03  0 -0.5612E-03  0  0.4623E-03  0 -0.3216E-03  0  0.2991E-03
   (  5, 34,  2)  (  5, 37,  2)  (  5, 37,  1)  (  5, 39,  1)  (  5, 41,  2)
  0 -0.2644E-03  0  0.1490E-03  0 -0.1585E-03  0 -0.9575E-04  0  0.9229E-04
   (  5, 39,  1)  (  5, 41,  2)  (  5, 34,  8)  (  5, 28,  1)  (  5, 32,  4)
  0 -0.8299E-04  0  0.5879E-04  0 -0.5750E-04  0 -0.5128E-04  0 -0.4701E-04
   (  5, 31,  8)  (  5, 33,  1)  (  5, 36,  1)  (  5, 30, 11)  (  5, 37,  9)
  0  0.2506E-04  0  0.2288E-04  0 -0.1803E-04  0  0.1088E-04  0 -0.1307E-04
   (  5, 39, 10)  (  5, 36,  1)  (  5, 36,  4)  (  5, 30,  2)  (  5, 38,  1)
  0  0.1619E-04  0 -0.9780E-05  0  0.8562E-05  0  0.7939E-05  0 -0.3001E-05
   (  5, 40,  1)  (  5, 41,  4)  (  5, 37,  1)  (  5, 43,  6)  (  5, 35,  1)
  1  0.2845E-05  0  0.3164E-05  0  0.4303E-05  0 -0.3531E-05  0  0.2735E-05
   (  5, 35,  2)  (  5, 14,  2)  (  5, 33,  3)  (  5, 29,  3)  (  5, 37,  2)
  0  0.3816E-05  0 -0.1864E-05  0  0.1511E-05  0  0.1142E-05  0 -0.1037E-05
   (  5, 13,  1)  (  5, 37,  2)  (  5, 39,  1)  (  5, 32,  8)  (  5, 30,  8)
  0 -0.7585E-06  1  0.4297E-06
   (  5, 16,  1)  (  5, 32,  6)

 MAXIMUM RESIDUAL FOR EACH ITERATION (1 INDICATES THE FIRST INNER ITERATION):

    RESIDUAL       RESIDUAL       RESIDUAL       RESIDUAL       RESIDUAL    
   LAYER,ROW,COL  LAYER,ROW,COL  LAYER,ROW,COL  LAYER,ROW,COL  LAYER,ROW,COL
 ---------------------------------------------------------------------------
  1  0.2432E-02  0  0.1813E-02  0  0.1609E-02  0  0.1454E-02  0  0.1230E-02
   (  4, 44,  2)  (  4, 44,  2)  (  4, 35, 35)  (  4, 35, 35)  (  4, 35, 35)
  0  0.1028E-02  0  0.8471E-03  0  0.6675E-03  0  0.5266E-03  0 -0.4146E-03
   (  4, 35, 35)  (  3, 40, 27)  (  3, 40, 27)  (  3, 40, 27)  (  4, 43,  4)
  0 -0.3400E-03  0 -0.2802E-03  0 -0.2674E-03  0 -0.2157E-03  0 -0.1680E-03
   (  4, 43,  4)  (  4, 43,  4)  (  4, 43,  4)  (  4, 43,  4)  (  4, 43,  4)
  0 -0.1564E-03  0 -0.1259E-03  0 -0.1013E-03  0 -0.8222E-04  0 -0.6238E-04
   (  4, 43,  4)  (  4, 44,  2)  (  4, 44,  2)  (  4, 44,  2)  (  4, 44,  2)
  0 -0.4888E-04  0 -0.4678E-04  0 -0.4291E-04  0 -0.3654E-04  0 -0.2912E-04
   (  4, 34, 35)  (  4, 34, 35)  (  4, 34, 35)  (  4, 34, 35)  (  4, 34, 35)
  0 -0.2249E-04  0 -0.2129E-04  0 -0.1736E-04  0 -0.1474E-04  0 -0.1029E-04
   (  4, 34, 35)  (  4, 34, 35)  (  4, 34, 35)  (  4, 34, 35)  (  4, 34, 35)
  1 -0.9560E-05  0 -0.9267E-05  0 -0.7396E-05  0 -0.6373E-05  0 -0.5745E-05
   (  4, 34, 35)  (  4, 34, 35)  (  4, 34, 35)  (  4, 34, 35)  (  4, 34, 35)
  0 -0.4465E-05  0 -0.3945E-05  0 -0.3171E-05  0 -0.2675E-05  0 -0.2222E-05
   (  4, 34, 35)  (  4, 34, 35)  (  4, 34, 35)  (  4, 34, 35)  (  4, 34, 35)
  0  0.1915E-05  0  0.1613E-05  0  0.1324E-05  0  0.1196E-05  0  0.9908E-06
   (  4, 35, 35)  (  4, 35, 35)  (  4, 35, 35)  (  4, 35, 35)  (  4, 35, 35)
  0  0.7471E-06  0  0.6235E-06  0  0.5017E-06  0  0.3759E-06  0  0.2880E-06
   (  4, 35, 35)  (  4, 35, 35)  (  4, 35, 35)  (  4, 35, 35)  (  4, 35, 35)
  0  0.2172E-06  0  0.1886E-06  0  0.1445E-06  0  0.1357E-06  0  0.9963E-07
   (  4, 35, 35)  (  4, 35, 35)  (  4, 35, 35)  (  4, 35, 35)  (  4, 35, 35)
  0  0.7324E-07  0  0.5830E-07  0  0.4763E-07  0  0.3011E-07  0  0.2781E-07
   (  4, 35, 35)  (  4, 35, 35)  (  4, 35, 35)  (  4, 35, 35)  (  4, 35, 35)
  1  0.2719E-07  0  0.2498E-07  0  0.2241E-07  0  0.2044E-07  0  0.1804E-07
   (  4, 35, 35)  (  4, 35, 35)  (  4, 35, 35)  (  4, 35, 35)  (  4, 35, 35)
  0  0.1579E-07  0  0.1502E-07  0  0.1344E-07  0  0.1210E-07  0  0.1058E-07
   (  4, 35, 35)  (  4, 35, 35)  (  4, 35, 35)  (  4, 35, 35)  (  4, 35, 35)
  0  0.9202E-08  1  0.9010E-08
   (  4, 35, 35)  (  4, 35, 35)



 OUTPUT CONTROL FOR STRESS PERIOD  110   TIME STEP    1
    SAVE HEAD FOR ALL LAYERS
    SAVE DRAWDOWN FOR ALL LAYERS
    SAVE BUDGET
    PRINT BUDGET
 UBDSV1 SAVING "         STORAGE" ON UNIT   9 AT TIME STEP  1, STRESS PERIOD 110
 UBDSV2 SAVING "   CONSTANT HEAD" ON UNIT   9 AT TIME STEP  1, STRESS PERIOD 110
 UBDSV1 SAVING "FLOW RIGHT FACE " ON UNIT   9 AT TIME STEP  1, STRESS PERIOD 110
 UBDSV1 SAVING "FLOW FRONT FACE " ON UNIT   9 AT TIME STEP  1, STRESS PERIOD 110
 UBDSV1 SAVING "FLOW LOWER FACE " ON UNIT   9 AT TIME STEP  1, STRESS PERIOD 110
 UBDSV3 SAVING "        RECHARGE" ON UNIT   9 AT TIME STEP  1, STRESS PERIOD 110

 HEAD WILL BE SAVED ON UNIT   37 AT END OF TIME STEP    1, STRESS PERIOD  110

 DRAWDOWN WILL BE SAVED ON UNIT   38 AT END OF TIME STEP    1, STRESS PERIOD  110
1
  VOLUMETRIC BUDGET FOR ENTIRE MODEL AT END OF TIME STEP    1, STRESS PERIOD 110
  ------------------------------------------------------------------------------

     CUMULATIVE VOLUMES      L**3       RATES FOR THIS TIME STEP      L**3/T
     ------------------                 ------------------------

           IN:                                      IN:
           ---                                      ---
             STORAGE =       16654.2227               STORAGE =       5.2996E-03
       CONSTANT HEAD =       28799.3398         CONSTANT HEAD =       1.0030E-03
            RECHARGE =        1350.0626              RECHARGE =       1.0213E-04

            TOTAL IN =       46803.6250              TOTAL IN =       6.4048E-03

          OUT:                                     OUT:
          ----                                     ----
             STORAGE =       14787.8525               STORAGE =           0.0000
       CONSTANT HEAD =       32017.0742         CONSTANT HEAD =       6.4050E-03
            RECHARGE =           0.0000              RECHARGE =           0.0000

           TOTAL OUT =       46804.9258             TOTAL OUT =       6.4050E-03

            IN - OUT =          -1.3008              IN - OUT =      -2.1700E-07

 PERCENT DISCREPANCY =          -0.00     PERCENT DISCREPANCY =          -0.00






         TIME SUMMARY AT END OF TIME STEP    1 IN STRESS PERIOD  110
                    SECONDS     MINUTES      HOURS       DAYS        YEARS
                    -----------------------------------------------------------
   TIME STEP LENGTH  86400.      1440.0      24.000      1.0000     2.73785E-03
 STRESS PERIOD TIME  86400.      1440.0      24.000      1.0000     2.73785E-03
         TOTAL TIME 1.32192E+07 2.20320E+05  3672.0      153.00     0.41889    
1

 SOLVING FOR HEAD 
     4 CALLS TO PCG ROUTINE FOR TIME STEP   2 IN STRESS PERIOD  110
    74 TOTAL ITERATIONS

 MAXIMUM HEAD CHANGE FOR EACH ITERATION (1 INDICATES THE FIRST INNER ITERATION):

    HEAD CHANGE    HEAD CHANGE    HEAD CHANGE    HEAD CHANGE    HEAD CHANGE 
   LAYER,ROW,COL  LAYER,ROW,COL  LAYER,ROW,COL  LAYER,ROW,COL  LAYER,ROW,COL
 ---------------------------------------------------------------------------
  1 -0.5727      0  0.3033      0  0.1744      0  0.1575      0 -0.1876    
   (  5, 43,  5)  (  5, 35,  1)  (  5, 40,  2)  (  5, 41,  2)  (  5, 37,  1)
  0 -0.1232      0 -0.1315      0  0.1398      0  0.8004E-01  0  0.6315E-01
   (  5, 39,  1)  (  5, 40,  1)  (  5, 37,  1)  (  5, 37,  6)  (  5, 40,  2)
  0  0.6098E-01  0 -0.3769E-01  0  0.2977E-01  0  0.3454E-01  0 -0.2595E-01
   (  5, 35,  9)  (  5, 32,  9)  (  5, 28,  2)  (  5, 30,  9)  (  5, 36,  8)
  0  0.1288E-01  0 -0.1461E-01  0  0.1313E-01  0 -0.8797E-02  0  0.9991E-02
   (  5, 35,  4)  (  5, 34,  1)  (  5, 15,  1)  (  5, 38,  7)  (  5, 38,  4)
  0 -0.5725E-02  0  0.5675E-02  0 -0.5754E-02  0 -0.5553E-02  0  0.4123E-02
   (  5, 37,  1)  (  5, 32,  4)  (  5, 34,  7)  (  5, 13,  1)  (  5, 13,  1)
  0 -0.2240E-02  0  0.1840E-02  0 -0.1337E-02  0 -0.1179E-02  0 -0.1089E-02
   (  5, 12,  1)  (  5, 37,  1)  (  5, 34,  1)  (  5, 40,  2)  (  5, 33,  3)
  1  0.8594E-03  0 -0.1103E-02  0  0.1104E-02  0 -0.1199E-02  0  0.7198E-03
   (  5, 29,  2)  (  5, 34,  3)  (  5, 33,  1)  (  5, 37,  1)  (  5, 39,  2)
  0  0.5226E-03  0 -0.5304E-03  0  0.4709E-03  0 -0.4313E-03  0  0.2967E-03
   (  5, 30,  9)  (  5, 38,  3)  (  5, 37,  1)  (  5, 39,  1)  (  5, 41,  2)
  0  0.1287E-03  0 -0.2574E-03  0  0.1625E-03  0 -0.1923E-03  0 -0.1072E-03
   (  5, 29,  2)  (  5, 39,  1)  (  5, 32,  9)  (  5, 34,  8)  (  5, 23,  1)
  0 -0.7674E-04  0 -0.1358E-03  0 -0.8317E-04  0  0.5430E-04  0 -0.4082E-04
   (  5, 36,  1)  (  5, 31,  9)  (  5, 37,  8)  (  5, 36,  6)  (  5, 31,  1)
  0 -0.5393E-04  0  0.3238E-04  0 -0.2694E-04  0  0.3874E-04  0 -0.2008E-04
   (  5, 38,  5)  (  5, 35,  1)  (  5, 38,  1)  (  5, 40,  1)  (  5, 42,  6)
  0  0.1616E-04  0  0.9893E-05  0 -0.5421E-05  0  0.8828E-05  0  0.3676E-05
   (  5, 37,  1)  (  5, 34,  5)  (  5, 30,  2)  (  5, 43,  5)  (  5, 35,  2)
  1 -0.3139E-05  0 -0.4112E-05  0  0.3090E-05  0 -0.4712E-05  0 -0.5805E-05
   (  5, 35,  3)  (  5, 15,  1)  (  5, 29,  1)  (  5, 34,  6)  (  5, 37,  1)
  0  0.3674E-05  0 -0.1831E-05  0  0.2673E-05  0  0.1686E-05  0 -0.1606E-05
   (  5, 39,  5)  (  5, 38,  3)  (  5, 34,  1)  (  5, 37,  7)  (  5, 29,  8)
  0 -0.1289E-05  0  0.1122E-05  0 -0.6937E-06  1  0.5167E-06
   (  5, 39,  1)  (  5, 40,  1)  (  5, 28,  1)  (  5, 27,  1)

 MAXIMUM RESIDUAL FOR EACH ITERATION (1 INDICATES THE FIRST INNER ITERATION):

    RESIDUAL       RESIDUAL       RESIDUAL       RESIDUAL       RESIDUAL    
   LAYER,ROW,COL  LAYER,ROW,COL  LAYER,ROW,COL  LAYER,ROW,COL  LAYER,ROW,COL
 ---------------------------------------------------------------------------
  1  0.2419E-02  0  0.1804E-02  0  0.1620E-02  0  0.1464E-02  0  0.1238E-02
   (  4, 44,  2)  (  4, 44,  2)  (  4, 35, 35)  (  4, 35, 35)  (  4, 35, 35)
  0  0.1033E-02  0  0.8463E-03  0  0.6662E-03  0  0.5251E-03  0 -0.4138E-03
   (  4, 35, 35)  (  3, 40, 27)  (  3, 40, 27)  (  3, 40, 27)  (  4, 43,  4)
  0 -0.3406E-03  0 -0.3076E-03  0 -0.2698E-03  0 -0.2161E-03  0 -0.1681E-03
   (  3, 35, 35)  (  3, 35, 35)  (  4, 43,  4)  (  4, 43,  4)  (  4, 43,  4)
  0 -0.1563E-03  0 -0.1256E-03  0 -0.1012E-03  0 -0.8214E-04  0 -0.6496E-04
   (  4, 43,  4)  (  4, 44,  2)  (  4, 44,  2)  (  4, 44,  2)  (  4, 44,  2)
  0 -0.5883E-04  0 -0.5381E-04  0 -0.4545E-04  0 -0.3624E-04  0 -0.2872E-04
   (  4, 44,  2)  (  4, 44,  2)  (  4, 34, 35)  (  4, 34, 35)  (  4, 34, 35)
  0 -0.2203E-04  0 -0.2002E-04  0 -0.1732E-04  0 -0.1450E-04  0 -0.1220E-04
   (  4, 34, 35)  (  4, 34, 35)  (  4, 34, 35)  (  4, 34, 35)  (  4, 34, 35)
  1 -0.1215E-04  0 -0.1051E-04  0 -0.9280E-05  0 -0.8379E-05  0 -0.5942E-05
   (  4, 34, 35)  (  4, 34, 35)  (  4, 34, 35)  (  4, 34, 35)  (  4, 34, 35)
  0 -0.4934E-05  0 -0.4106E-05  0 -0.3388E-05  0 -0.2736E-05  0  0.2414E-05
   (  4, 34, 35)  (  4, 34, 35)  (  4, 34, 35)  (  4, 34, 35)  (  4, 35, 35)
  0  0.2342E-05  0  0.2022E-05  0  0.1634E-05  0  0.1321E-05  0  0.1091E-05
   (  4, 35, 35)  (  4, 35, 35)  (  4, 35, 35)  (  4, 35, 35)  (  4, 35, 35)
  0  0.9894E-06  0  0.7352E-06  0  0.5384E-06  0  0.4375E-06  0  0.3960E-06
   (  4, 35, 35)  (  4, 35, 35)  (  4, 35, 35)  (  4, 35, 35)  (  4, 35, 35)
  0  0.2876E-06  0  0.2183E-06  0  0.1924E-06  0  0.1419E-06  0  0.1063E-06
   (  4, 35, 35)  (  4, 35, 35)  (  4, 35, 35)  (  4, 35, 35)  (  4, 35, 35)
  0  0.8626E-07  0  0.6810E-07  0  0.6222E-07  0  0.4392E-07  0  0.4092E-07
   (  4, 35, 35)  (  4, 35, 35)  (  4, 35, 35)  (  4, 35, 35)  (  4, 35, 35)
  1  0.4049E-07  0  0.3822E-07  0  0.3744E-07  0  0.3321E-07  0  0.2988E-07
   (  4, 35, 35)  (  4, 35, 35)  (  4, 35, 35)  (  4, 35, 35)  (  4, 35, 35)
  0  0.2541E-07  0  0.2382E-07  0  0.2060E-07  0  0.1784E-07  0  0.1598E-07
   (  4, 35, 35)  (  4, 35, 35)  (  4, 35, 35)  (  4, 35, 35)  (  4, 35, 35)
  0  0.1373E-07  0  0.1190E-07  0  0.1103E-07  1  0.1080E-07
   (  4, 35, 35)  (  4, 35, 35)  (  4, 35, 35)  (  4, 35, 35)



 OUTPUT CONTROL FOR STRESS PERIOD  110   TIME STEP    2
    SAVE HEAD FOR ALL LAYERS
    SAVE DRAWDOWN FOR ALL LAYERS
    SAVE BUDGET
    PRINT BUDGET
 UBDSV1 SAVING "         STORAGE" ON UNIT   9 AT TIME STEP  2, STRESS PERIOD 110
 UBDSV2 SAVING "   CONSTANT HEAD" ON UNIT   9 AT TIME STEP  2, STRESS PERIOD 110
 UBDSV1 SAVING "FLOW RIGHT FACE " ON UNIT   9 AT TIME STEP  2, STRESS PERIOD 110
 UBDSV1 SAVING "FLOW FRONT FACE " ON UNIT   9 AT TIME STEP  2, STRESS PERIOD 110
 UBDSV1 SAVING "FLOW LOWER FACE " ON UNIT   9 AT TIME STEP  2, STRESS PERIOD 110
 UBDSV3 SAVING "        RECHARGE" ON UNIT   9 AT TIME STEP  2, STRESS PERIOD 110

 HEAD WILL BE SAVED ON UNIT   37 AT END OF TIME STEP    2, STRESS PERIOD  110

 DRAWDOWN WILL BE SAVED ON UNIT   38 AT END OF TIME STEP    2, STRESS PERIOD  110
1
  VOLUMETRIC BUDGET FOR ENTIRE MODEL AT END OF TIME STEP    2, STRESS PERIOD 110
  ------------------------------------------------------------------------------

     CUMULATIVE VOLUMES      L**3       RATES FOR THIS TIME STEP      L**3/T
     ------------------                 ------------------------

           IN:                                      IN:
           ---                                      ---
             STORAGE =       17137.0371               STORAGE =       5.5881E-03
       CONSTANT HEAD =       28952.7891         CONSTANT HEAD =       1.7760E-03
            RECHARGE =        1358.8866              RECHARGE =       1.0213E-04

            TOTAL IN =       47448.7148              TOTAL IN =       7.4663E-03

          OUT:                                     OUT:
          ----                                     ----
             STORAGE =       14787.8525               STORAGE =           0.0000
       CONSTANT HEAD =       32662.1816         CONSTANT HEAD =       7.4665E-03
            RECHARGE =           0.0000              RECHARGE =           0.0000

           TOTAL OUT =       47450.0352             TOTAL OUT =       7.4665E-03

            IN - OUT =          -1.3203              IN - OUT =      -2.2585E-07

 PERCENT DISCREPANCY =          -0.00     PERCENT DISCREPANCY =          -0.00






         TIME SUMMARY AT END OF TIME STEP    2 IN STRESS PERIOD  110
                    SECONDS     MINUTES      HOURS       DAYS        YEARS
                    -----------------------------------------------------------
   TIME STEP LENGTH  86400.      1440.0      24.000      1.0000     2.73785E-03
 STRESS PERIOD TIME 1.72800E+05  2880.0      48.000      2.0000     5.47570E-03
         TOTAL TIME 1.33056E+07 2.21760E+05  3696.0      154.00     0.42163    
1
1
                            STRESS PERIOD NO.  111, LENGTH =   86400.00    
                            -----------------------------------------------

                              NUMBER OF TIME STEPS =     1

                               MULTIPLIER FOR DELT =     1.000

                            INITIAL TIME STEP SIZE =   86400.00    

 REUSING RECH FROM LAST STRESS PERIOD

 CHD NO.   LAYER   ROW   COL    START HEAD        END HEAD         IFACE           
 ----------------------------------------------------------------------------------
      1      4      3      1       110.3           110.3           0.000    
      2      5      3      1       110.3           110.3           0.000    
      3      4      3      2       110.3           110.3           0.000    
      4      5      3      2       110.3           110.3           0.000    
      5      4      3      3       110.3           110.3           0.000    
      6      5      3      3       110.3           110.3           0.000    
      7      4      3      4       110.3           110.3           0.000    
      8      5      3      4       110.3           110.3           0.000    
      9      4      3      5       110.3           110.3           0.000    
     10      5      3      5       110.3           110.3           0.000    
     11      4      3      6       110.3           110.3           0.000    
     12      5      3      6       110.3           110.3           0.000    
     13      4      3      7       110.3           110.3           0.000    
     14      5      3      7       110.3           110.3           0.000    
     15      4      3      8       110.3           110.3           0.000    
     16      5      3      8       110.3           110.3           0.000    
     17      4      2      8       110.3           110.3           0.000    
     18      5      2      8       110.3           110.3           0.000    
     19      4      2      9       110.3           110.3           0.000    
     20      5      2      9       110.3           110.3           0.000    
     21      4      2     10       110.3           110.3           0.000    
     22      5      2     10       110.3           110.3           0.000    
     23      4      2     11       110.3           110.3           0.000    
     24      5      2     11       110.3           110.3           0.000    
     25      4      2     12       110.3           110.3           0.000    
     26      5      2     12       110.3           110.3           0.000    
     27      4      2     13       110.3           110.3           0.000    
     28      5      2     13       110.3           110.3           0.000    
     29      4      2     14       110.3           110.3           0.000    
     30      5      2     14       110.3           110.3           0.000    
     31      4      2     15       110.3           110.3           0.000    
     32      5      2     15       110.3           110.3           0.000    
     33      4      2     16       110.3           110.3           0.000    
     34      5      2     16       110.3           110.3           0.000    
     35      4      2     17       110.3           110.3           0.000    
     36      5      2     17       110.3           110.3           0.000    
     37      4      2     18       110.3           110.3           0.000    
     38      5      2     18       110.3           110.3           0.000    
     39      4      2     19       110.3           110.3           0.000    
     40      5      2     19       110.3           110.3           0.000    
     41      4      2     20       110.3           110.3           0.000    
     42      5      2     20       110.3           110.3           0.000    
     43      4      2     21       110.3           110.3           0.000    
     44      5      2     21       110.3           110.3           0.000    
     45      4      2     22       110.3           110.3           0.000    
     46      5      2     22       110.3           110.3           0.000    
     47      4      2     23       110.3           110.3           0.000    
     48      5      2     23       110.3           110.3           0.000    
     49      4      2     24       110.3           110.3           0.000    
     50      5      2     24       110.3           110.3           0.000    
     51      4      2     25       110.3           110.3           0.000    
     52      5      2     25       110.3           110.3           0.000    
     53      4      2     26       110.3           110.3           0.000    
     54      5      2     26       110.3           110.3           0.000    
     55      4      1     26       110.3           110.3           0.000    
     56      5      1     26       110.3           110.3           0.000    
     57      4      1     27       110.3           110.3           0.000    
     58      5      1     27       110.3           110.3           0.000    
     59      4      1     28       110.3           110.3           0.000    
     60      5      1     28       110.3           110.3           0.000    
     61      4      1     29       110.3           110.3           0.000    
     62      5      1     29       110.3           110.3           0.000    
     63      4      1     30       110.3           110.3           0.000    
     64      5      1     30       110.3           110.3           0.000    
     65      4      1     31       110.3           110.3           0.000    
     66      5      1     31       110.3           110.3           0.000    
     67      4      1     32       110.3           110.3           0.000    
     68      5      1     32       110.3           110.3           0.000    
     69      4      1     33       110.3           110.3           0.000    
     70      5      1     33       110.3           110.3           0.000    
     71      4      1     34       110.3           110.3           0.000    
     72      5      1     34       110.3           110.3           0.000    
     73      4      1     35       110.3           110.3           0.000    
     74      5      1     35       110.3           110.3           0.000    
     75      4     36     35       109.9           109.9           0.000    
     76      5     36     35       109.9           109.9           0.000    
     77      4     35     34       109.9           109.9           0.000    
     78      5     35     34       109.9           109.9           0.000    
     79      4     36     34       109.9           109.9           0.000    
     80      5     36     34       109.9           109.9           0.000    
     81      4     36     33       109.9           109.9           0.000    
     82      5     36     33       109.9           109.9           0.000    
     83      4     36     32       109.9           109.9           0.000    
     84      5     36     32       109.9           109.9           0.000    
     85      4     37     32       109.9           109.9           0.000    
     86      5     37     32       109.9           109.9           0.000    
     87      4     37     31       109.9           109.9           0.000    
     88      5     37     31       109.9           109.9           0.000    
     89      4     38     31       109.9           109.9           0.000    
     90      5     38     31       109.9           109.9           0.000    
     91      4     38     30       109.9           109.9           0.000    
     92      5     38     30       109.9           109.9           0.000    
     93      4     39     30       109.9           109.9           0.000    
     94      5     39     30       109.9           109.9           0.000    
     95      4     39     29       109.9           109.9           0.000    
     96      5     39     29       109.9           109.9           0.000    
     97      4     40     29       109.9           109.9           0.000    
     98      5     40     29       109.9           109.9           0.000    
     99      4     40     28       109.9           109.9           0.000    
    100      5     40     28       109.9           109.9           0.000    
    101      4     40     27       109.9           109.9           0.000    
    102      5     40     27       109.9           109.9           0.000    
    103      4     41     27       109.9           109.9           0.000    
    104      5     41     27       109.9           109.9           0.000    
    105      4     41     26       109.9           109.9           0.000    
    106      5     41     26       109.9           109.9           0.000    
    107      4     41     25       109.9           109.9           0.000    
    108      5     41     25       109.9           109.9           0.000    
    109      4     41     24       109.9           109.9           0.000    
    110      5     41     24       109.9           109.9           0.000    
    111      4     41     23       109.9           109.9           0.000    
    112      5     41     23       109.9           109.9           0.000    
    113      4     41     22       109.9           109.9           0.000    
    114      5     41     22       109.9           109.9           0.000    
    115      4     42     22       109.9           109.9           0.000    
    116      5     42     22       109.9           109.9           0.000    
    117      4     42     21       109.9           109.9           0.000    
    118      5     42     21       109.9           109.9           0.000    
    119      4     42     20       109.9           109.9           0.000    
    120      5     42     20       109.9           109.9           0.000    
    121      4     42     19       109.9           109.9           0.000    
    122      5     42     19       109.9           109.9           0.000    
    123      4     43     18       109.9           109.9           0.000    
    124      5     43     18       109.9           109.9           0.000    
    125      4     42     18       109.9           109.9           0.000    
    126      5     42     18       109.9           109.9           0.000    
    127      4     42     17       109.9           109.9           0.000    
    128      5     42     17       109.9           109.9           0.000    
    129      4     42     16       109.9           109.9           0.000    
    130      5     42     16       109.9           109.9           0.000    
    131      4     42     15       109.9           109.9           0.000    
    132      5     42     15       109.9           109.9           0.000    
    133      4     43     15       109.9           109.9           0.000    
    134      5     43     15       109.9           109.9           0.000    
    135      4     43     14       109.9           109.9           0.000    
    136      5     43     14       109.9           109.9           0.000    
    137      4     43     13       109.9           109.9           0.000    
    138      5     43     13       109.9           109.9           0.000    
    139      4     43     12       109.9           109.9           0.000    
    140      5     43     12       109.9           109.9           0.000    
    141      4     43     11       109.9           109.9           0.000    
    142      5     43     11       109.9           109.9           0.000    
    143      4     43     10       109.9           109.9           0.000    
    144      5     43     10       109.9           109.9           0.000    
    145      4     44     10       109.9           109.9           0.000    
    146      5     44     10       109.9           109.9           0.000    
    147      4     44      9       109.9           109.9           0.000    
    148      5     44      9       109.9           109.9           0.000    
    149      4     44      8       109.9           109.9           0.000    
    150      5     44      8       109.9           109.9           0.000    
    151      4     44      7       109.9           109.9           0.000    
    152      5     44      7       109.9           109.9           0.000    
    153      4     44      6       109.9           109.9           0.000    
    154      5     44      6       109.9           109.9           0.000    
    155      4     44      5       109.9           109.9           0.000    
    156      5     44      5       109.9           109.9           0.000    
    157      4     44      4       109.9           109.9           0.000    
    158      5     44      4       109.9           109.9           0.000    
    159      4     44      3       109.9           109.9           0.000    
    160      5     44      3       109.9           109.9           0.000    
    161      4     45      3       109.9           109.9           0.000    
    162      5     45      3       109.9           109.9           0.000    
    163      4     45      2       109.9           109.9           0.000    
    164      5     45      2       109.9           109.9           0.000    
    165      4     45      1       109.9           109.9           0.000    
    166      5     45      1       109.9           109.9           0.000    


    166 TIME-VARIANT SPECIFIED-HEAD CELLS

 SOLVING FOR HEAD 


     3 CALLS TO PCG ROUTINE FOR TIME STEP   1 IN STRESS PERIOD  111
    59 TOTAL ITERATIONS

 MAXIMUM HEAD CHANGE FOR EACH ITERATION (1 INDICATES THE FIRST INNER ITERATION):

    HEAD CHANGE    HEAD CHANGE    HEAD CHANGE    HEAD CHANGE    HEAD CHANGE 
   LAYER,ROW,COL  LAYER,ROW,COL  LAYER,ROW,COL  LAYER,ROW,COL  LAYER,ROW,COL
 ---------------------------------------------------------------------------
  1 -0.4012E-01  0  0.2086E-01  0 -0.2282E-01  0  0.2764E-01  0 -0.2639E-01
   (  5, 28, 35)  (  5, 28,  3)  (  5, 30,  1)  (  5, 34,  2)  (  5, 34,  2)
  0 -0.2002E-01  0 -0.2603E-01  0  0.1338E-01  0 -0.1313E-01  0  0.8164E-02
   (  5, 33,  7)  (  5, 37,  1)  (  5, 31,  8)  (  5, 39,  1)  (  5, 39,  1)
  0 -0.6641E-02  0 -0.4016E-02  0  0.3865E-02  0 -0.3145E-02  0  0.2585E-02
   (  5, 40,  1)  (  5, 34,  4)  (  5, 31,  4)  (  5, 21,  6)  (  5, 29, 11)
  0 -0.1905E-02  0  0.2325E-02  0 -0.1715E-02  0  0.1168E-02  0 -0.9627E-03
   (  5, 32,  1)  (  5, 34,  2)  (  5, 37,  7)  (  5, 39,  6)  (  5, 39,  5)
  0  0.6822E-03  0 -0.6625E-03  0  0.5145E-03  0  0.3745E-03  0 -0.2779E-03
   (  5, 36,  2)  (  5, 32,  3)  (  5, 31,  5)  (  5, 12,  1)  (  5, 32,  2)
  0 -0.2416E-03  0  0.2352E-03  0 -0.2159E-03  0  0.1593E-03  0 -0.1157E-03
   (  5, 38,  1)  (  5, 39,  2)  (  5, 34,  1)  (  5, 35,  5)  (  5, 36,  6)
  1  0.1069E-03  0 -0.1366E-03  0 -0.1484E-03  0 -0.1389E-03  0 -0.1307E-03
   (  5, 33,  4)  (  5, 30,  1)  (  5, 36,  6)  (  5, 26,  4)  (  5, 35,  1)
  0 -0.9473E-04  0  0.5954E-04  0 -0.4919E-04  0 -0.5544E-04  0  0.4472E-04
   (  5, 30,  4)  (  5, 22,  7)  (  5, 26, 10)  (  5, 38,  1)  (  5, 39,  2)
  0 -0.2628E-04  0  0.1980E-04  0 -0.1902E-04  0  0.1656E-04  0 -0.1641E-04
   (  5, 30,  4)  (  5, 31,  2)  (  5, 28,  9)  (  5, 30,  8)  (  5, 31,  8)
  0 -0.1231E-04  0  0.7394E-05  0 -0.8995E-05  0 -0.6848E-05  0 -0.4683E-05
   (  5, 35,  2)  (  5, 35,  3)  (  5, 36,  9)  (  5, 26, 10)  (  5, 32,  8)
  0  0.3579E-05  0 -0.5600E-05  0 -0.4410E-05  0 -0.2959E-05  0  0.2217E-05
   (  5, 37,  4)  (  5, 30,  2)  (  5, 36,  1)  (  5, 37,  7)  (  5, 38,  8)
  0  0.1248E-05  0 -0.1282E-05  0  0.7320E-06  1 -0.6409E-06
   (  5, 32, 11)  (  5, 14,  1)  (  5, 35,  2)  (  5, 36,  3)

 MAXIMUM RESIDUAL FOR EACH ITERATION (1 INDICATES THE FIRST INNER ITERATION):

    RESIDUAL       RESIDUAL       RESIDUAL       RESIDUAL       RESIDUAL    
   LAYER,ROW,COL  LAYER,ROW,COL  LAYER,ROW,COL  LAYER,ROW,COL  LAYER,ROW,COL
 ---------------------------------------------------------------------------
  1  0.2316E-03  0  0.2192E-03  0  0.1991E-03  0  0.1662E-03  0  0.1262E-03
   (  3,  3,  1)  (  3,  3,  1)  (  3,  3,  1)  (  3,  3,  1)  (  3,  3,  1)
  0  0.1038E-03  0  0.8362E-04  0  0.6466E-04  0  0.4821E-04  0  0.3827E-04
   (  3,  3,  1)  (  3,  3,  1)  (  3,  3,  1)  (  3,  3,  1)  (  3,  3,  1)
  0  0.2928E-04  0  0.2585E-04  0  0.2199E-04  0  0.1673E-04  0 -0.1237E-04
   (  3,  3,  1)  (  3,  3,  1)  (  3,  3,  1)  (  3,  3,  1)  (  3,  3,  9)
  0 -0.1107E-04  0 -0.9025E-05  0  0.7468E-05  0  0.6362E-05  0  0.5040E-05
   (  3,  3,  9)  (  3,  3,  9)  (  4, 44,  1)  (  4, 44,  1)  (  4, 44,  1)
  0  0.4550E-05  0  0.4107E-05  0  0.3686E-05  0  0.2450E-05  0 -0.1590E-05
   (  4, 44,  1)  (  4, 44,  1)  (  4, 44,  1)  (  4, 44,  1)  (  3,  3,  8)
  0 -0.1341E-05  0 -0.1174E-05  0 -0.1027E-05  0 -0.9231E-06  0 -0.7117E-06
   (  3,  3,  2)  (  3,  3,  2)  (  3,  3,  2)  (  3,  3,  2)  (  3,  3,  2)
  1 -0.6826E-06  0 -0.6335E-06  0 -0.5307E-06  0 -0.4683E-06  0 -0.4163E-06
   (  3,  3,  2)  (  3,  3,  2)  (  3,  3,  2)  (  3,  3,  2)  (  3,  3,  2)
  0 -0.3493E-06  0 -0.2991E-06  0 -0.2638E-06  0 -0.2350E-06  0 -0.2063E-06
   (  3,  3,  2)  (  3,  3,  2)  (  3,  3,  2)  (  3,  3,  2)  (  3,  3,  2)
  0 -0.1727E-06  0 -0.1637E-06  0 -0.1324E-06  0 -0.1012E-06  0 -0.7191E-07
   (  3,  3,  2)  (  3,  3,  2)  (  3,  3,  2)  (  3,  3,  2)  (  3,  3,  2)
  0 -0.5705E-07  0  0.5126E-07  0  0.3939E-07  0  0.2992E-07  0  0.2239E-07
   (  3,  3,  2)  (  3,  3,  1)  (  3,  3,  1)  (  3,  3,  1)  (  3,  3,  1)
  0  0.2038E-07  0  0.1746E-07  0  0.1427E-07  0  0.1081E-07  0  0.7525E-08
   (  3,  3,  1)  (  3,  3,  1)  (  3,  3,  1)  (  3,  3,  1)  (  3,  3,  1)
  0  0.5465E-08  0  0.4169E-08  0  0.3882E-08  1  0.3891E-08
   (  3,  1, 35)  (  3,  1, 35)  (  3,  1, 35)  (  3,  1, 35)



 OUTPUT CONTROL FOR STRESS PERIOD  111   TIME STEP    1
    SAVE HEAD FOR ALL LAYERS
    SAVE DRAWDOWN FOR ALL LAYERS
    SAVE BUDGET
    PRINT BUDGET
 UBDSV1 SAVING "         STORAGE" ON UNIT   9 AT TIME STEP  1, STRESS PERIOD 111
 UBDSV2 SAVING "   CONSTANT HEAD" ON UNIT   9 AT TIME STEP  1, STRESS PERIOD 111
 UBDSV1 SAVING "FLOW RIGHT FACE " ON UNIT   9 AT TIME STEP  1, STRESS PERIOD 111
 UBDSV1 SAVING "FLOW FRONT FACE " ON UNIT   9 AT TIME STEP  1, STRESS PERIOD 111
 UBDSV1 SAVING "FLOW LOWER FACE " ON UNIT   9 AT TIME STEP  1, STRESS PERIOD 111
 UBDSV3 SAVING "        RECHARGE" ON UNIT   9 AT TIME STEP  1, STRESS PERIOD 111

 HEAD WILL BE SAVED ON UNIT   37 AT END OF TIME STEP    1, STRESS PERIOD  111

 DRAWDOWN WILL BE SAVED ON UNIT   38 AT END OF TIME STEP    1, STRESS PERIOD  111
1
  VOLUMETRIC BUDGET FOR ENTIRE MODEL AT END OF TIME STEP    1, STRESS PERIOD 111
  ------------------------------------------------------------------------------

     CUMULATIVE VOLUMES      L**3       RATES FOR THIS TIME STEP      L**3/T
     ------------------                 ------------------------

           IN:                                      IN:
           ---                                      ---
             STORAGE =       17293.2891               STORAGE =       1.8085E-03
       CONSTANT HEAD =       29206.6953         CONSTANT HEAD =       2.9387E-03
            RECHARGE =        1367.7106              RECHARGE =       1.0213E-04

            TOTAL IN =       47867.6953              TOTAL IN =       4.8493E-03

          OUT:                                     OUT:
          ----                                     ----
             STORAGE =       14787.8652               STORAGE =       1.4629E-07
       CONSTANT HEAD =       33081.1641         CONSTANT HEAD =       4.8493E-03
            RECHARGE =           0.0000              RECHARGE =           0.0000

           TOTAL OUT =       47869.0312             TOTAL OUT =       4.8495E-03

            IN - OUT =          -1.3359              IN - OUT =      -1.5926E-07

 PERCENT DISCREPANCY =          -0.00     PERCENT DISCREPANCY =          -0.00






         TIME SUMMARY AT END OF TIME STEP    1 IN STRESS PERIOD  111
                    SECONDS     MINUTES      HOURS       DAYS        YEARS
                    -----------------------------------------------------------
   TIME STEP LENGTH  86400.      1440.0      24.000      1.0000     2.73785E-03
 STRESS PERIOD TIME  86400.      1440.0      24.000      1.0000     2.73785E-03
         TOTAL TIME 1.33920E+07 2.23200E+05  3720.0      155.00     0.42437    
1
1
                            STRESS PERIOD NO.  112, LENGTH =   86400.00    
                            -----------------------------------------------

                              NUMBER OF TIME STEPS =     1

                               MULTIPLIER FOR DELT =     1.000

                            INITIAL TIME STEP SIZE =   86400.00    

 REUSING RECH FROM LAST STRESS PERIOD

 CHD NO.   LAYER   ROW   COL    START HEAD        END HEAD         IFACE           
 ----------------------------------------------------------------------------------
      1      4      3      1       110.3           110.2           0.000    
      2      5      3      1       110.3           110.2           0.000    
      3      4      3      2       110.3           110.2           0.000    
      4      5      3      2       110.3           110.2           0.000    
      5      4      3      3       110.3           110.2           0.000    
      6      5      3      3       110.3           110.2           0.000    
      7      4      3      4       110.3           110.2           0.000    
      8      5      3      4       110.3           110.2           0.000    
      9      4      3      5       110.3           110.2           0.000    
     10      5      3      5       110.3           110.2           0.000    
     11      4      3      6       110.3           110.2           0.000    
     12      5      3      6       110.3           110.2           0.000    
     13      4      3      7       110.3           110.2           0.000    
     14      5      3      7       110.3           110.2           0.000    
     15      4      3      8       110.3           110.2           0.000    
     16      5      3      8       110.3           110.2           0.000    
     17      4      2      8       110.3           110.2           0.000    
     18      5      2      8       110.3           110.2           0.000    
     19      4      2      9       110.3           110.2           0.000    
     20      5      2      9       110.3           110.2           0.000    
     21      4      2     10       110.3           110.2           0.000    
     22      5      2     10       110.3           110.2           0.000    
     23      4      2     11       110.3           110.2           0.000    
     24      5      2     11       110.3           110.2           0.000    
     25      4      2     12       110.3           110.2           0.000    
     26      5      2     12       110.3           110.2           0.000    
     27      4      2     13       110.3           110.2           0.000    
     28      5      2     13       110.3           110.2           0.000    
     29      4      2     14       110.3           110.2           0.000    
     30      5      2     14       110.3           110.2           0.000    
     31      4      2     15       110.3           110.2           0.000    
     32      5      2     15       110.3           110.2           0.000    
     33      4      2     16       110.3           110.2           0.000    
     34      5      2     16       110.3           110.2           0.000    
     35      4      2     17       110.3           110.2           0.000    
     36      5      2     17       110.3           110.2           0.000    
     37      4      2     18       110.3           110.2           0.000    
     38      5      2     18       110.3           110.2           0.000    
     39      4      2     19       110.3           110.2           0.000    
     40      5      2     19       110.3           110.2           0.000    
     41      4      2     20       110.3           110.2           0.000    
     42      5      2     20       110.3           110.2           0.000    
     43      4      2     21       110.3           110.2           0.000    
     44      5      2     21       110.3           110.2           0.000    
     45      4      2     22       110.3           110.2           0.000    
     46      5      2     22       110.3           110.2           0.000    
     47      4      2     23       110.3           110.2           0.000    
     48      5      2     23       110.3           110.2           0.000    
     49      4      2     24       110.3           110.2           0.000    
     50      5      2     24       110.3           110.2           0.000    
     51      4      2     25       110.3           110.2           0.000    
     52      5      2     25       110.3           110.2           0.000    
     53      4      2     26       110.3           110.2           0.000    
     54      5      2     26       110.3           110.2           0.000    
     55      4      1     26       110.3           110.2           0.000    
     56      5      1     26       110.3           110.2           0.000    
     57      4      1     27       110.3           110.2           0.000    
     58      5      1     27       110.3           110.2           0.000    
     59      4      1     28       110.3           110.2           0.000    
     60      5      1     28       110.3           110.2           0.000    
     61      4      1     29       110.3           110.2           0.000    
     62      5      1     29       110.3           110.2           0.000    
     63      4      1     30       110.3           110.2           0.000    
     64      5      1     30       110.3           110.2           0.000    
     65      4      1     31       110.3           110.2           0.000    
     66      5      1     31       110.3           110.2           0.000    
     67      4      1     32       110.3           110.2           0.000    
     68      5      1     32       110.3           110.2           0.000    
     69      4      1     33       110.3           110.2           0.000    
     70      5      1     33       110.3           110.2           0.000    
     71      4      1     34       110.3           110.2           0.000    
     72      5      1     34       110.3           110.2           0.000    
     73      4      1     35       110.3           110.2           0.000    
     74      5      1     35       110.3           110.2           0.000    
     75      4     36     35       109.9           109.9           0.000    
     76      5     36     35       109.9           109.9           0.000    
     77      4     35     34       109.9           109.9           0.000    
     78      5     35     34       109.9           109.9           0.000    
     79      4     36     34       109.9           109.9           0.000    
     80      5     36     34       109.9           109.9           0.000    
     81      4     36     33       109.9           109.9           0.000    
     82      5     36     33       109.9           109.9           0.000    
     83      4     36     32       109.9           109.9           0.000    
     84      5     36     32       109.9           109.9           0.000    
     85      4     37     32       109.9           109.9           0.000    
     86      5     37     32       109.9           109.9           0.000    
     87      4     37     31       109.9           109.9           0.000    
     88      5     37     31       109.9           109.9           0.000    
     89      4     38     31       109.9           109.9           0.000    
     90      5     38     31       109.9           109.9           0.000    
     91      4     38     30       109.9           109.9           0.000    
     92      5     38     30       109.9           109.9           0.000    
     93      4     39     30       109.9           109.9           0.000    
     94      5     39     30       109.9           109.9           0.000    
     95      4     39     29       109.9           109.9           0.000    
     96      5     39     29       109.9           109.9           0.000    
     97      4     40     29       109.9           109.9           0.000    
     98      5     40     29       109.9           109.9           0.000    
     99      4     40     28       109.9           109.9           0.000    
    100      5     40     28       109.9           109.9           0.000    
    101      4     40     27       109.9           109.9           0.000    
    102      5     40     27       109.9           109.9           0.000    
    103      4     41     27       109.9           109.9           0.000    
    104      5     41     27       109.9           109.9           0.000    
    105      4     41     26       109.9           109.9           0.000    
    106      5     41     26       109.9           109.9           0.000    
    107      4     41     25       109.9           109.9           0.000    
    108      5     41     25       109.9           109.9           0.000    
    109      4     41     24       109.9           109.9           0.000    
    110      5     41     24       109.9           109.9           0.000    
    111      4     41     23       109.9           109.9           0.000    
    112      5     41     23       109.9           109.9           0.000    
    113      4     41     22       109.9           109.9           0.000    
    114      5     41     22       109.9           109.9           0.000    
    115      4     42     22       109.9           109.9           0.000    
    116      5     42     22       109.9           109.9           0.000    
    117      4     42     21       109.9           109.9           0.000    
    118      5     42     21       109.9           109.9           0.000    
    119      4     42     20       109.9           109.9           0.000    
    120      5     42     20       109.9           109.9           0.000    
    121      4     42     19       109.9           109.9           0.000    
    122      5     42     19       109.9           109.9           0.000    
    123      4     43     18       109.9           109.9           0.000    
    124      5     43     18       109.9           109.9           0.000    
    125      4     42     18       109.9           109.9           0.000    
    126      5     42     18       109.9           109.9           0.000    
    127      4     42     17       109.9           109.9           0.000    
    128      5     42     17       109.9           109.9           0.000    
    129      4     42     16       109.9           109.9           0.000    
    130      5     42     16       109.9           109.9           0.000    
    131      4     42     15       109.9           109.9           0.000    
    132      5     42     15       109.9           109.9           0.000    
    133      4     43     15       109.9           109.9           0.000    
    134      5     43     15       109.9           109.9           0.000    
    135      4     43     14       109.9           109.9           0.000    
    136      5     43     14       109.9           109.9           0.000    
    137      4     43     13       109.9           109.9           0.000    
    138      5     43     13       109.9           109.9           0.000    
    139      4     43     12       109.9           109.9           0.000    
    140      5     43     12       109.9           109.9           0.000    
    141      4     43     11       109.9           109.9           0.000    
    142      5     43     11       109.9           109.9           0.000    
    143      4     43     10       109.9           109.9           0.000    
    144      5     43     10       109.9           109.9           0.000    
    145      4     44     10       109.9           109.9           0.000    
    146      5     44     10       109.9           109.9           0.000    
    147      4     44      9       109.9           109.9           0.000    
    148      5     44      9       109.9           109.9           0.000    
    149      4     44      8       109.9           109.9           0.000    
    150      5     44      8       109.9           109.9           0.000    
    151      4     44      7       109.9           109.9           0.000    
    152      5     44      7       109.9           109.9           0.000    
    153      4     44      6       109.9           109.9           0.000    
    154      5     44      6       109.9           109.9           0.000    
    155      4     44      5       109.9           109.9           0.000    
    156      5     44      5       109.9           109.9           0.000    
    157      4     44      4       109.9           109.9           0.000    
    158      5     44      4       109.9           109.9           0.000    
    159      4     44      3       109.9           109.9           0.000    
    160      5     44      3       109.9           109.9           0.000    
    161      4     45      3       109.9           109.9           0.000    
    162      5     45      3       109.9           109.9           0.000    
    163      4     45      2       109.9           109.9           0.000    
    164      5     45      2       109.9           109.9           0.000    
    165      4     45      1       109.9           109.9           0.000    
    166      5     45      1       109.9           109.9           0.000    


    166 TIME-VARIANT SPECIFIED-HEAD CELLS

 SOLVING FOR HEAD 


     3 CALLS TO PCG ROUTINE FOR TIME STEP   1 IN STRESS PERIOD  112
    61 TOTAL ITERATIONS

 MAXIMUM HEAD CHANGE FOR EACH ITERATION (1 INDICATES THE FIRST INNER ITERATION):

    HEAD CHANGE    HEAD CHANGE    HEAD CHANGE    HEAD CHANGE    HEAD CHANGE 
   LAYER,ROW,COL  LAYER,ROW,COL  LAYER,ROW,COL  LAYER,ROW,COL  LAYER,ROW,COL
 ---------------------------------------------------------------------------
  1 -0.1490      0  0.5638E-01  0  0.4438E-01  0 -0.4235E-01  0 -0.3397E-01
   (  3,  4,  4)  (  5, 35,  1)  (  5, 39,  2)  (  5, 35,  2)  (  5, 37,  1)
  0 -0.4689E-01  0  0.3417E-01  0  0.2272E-01  0  0.2191E-01  0 -0.1790E-01
   (  5, 39,  1)  (  5, 36,  1)  (  5, 38,  1)  (  5, 37,  6)  (  5, 35,  7)
  0  0.1582E-01  0 -0.1161E-01  0  0.6740E-02  0  0.9142E-02  0 -0.4561E-02
   (  5, 35,  9)  (  5, 32,  9)  (  5, 28,  2)  (  5, 30,  9)  (  5, 28,  9)
  0 -0.3979E-02  0  0.3310E-02  0  0.2907E-02  0 -0.1856E-02  0  0.1735E-02
   (  5, 35,  1)  (  5, 36,  4)  (  5, 15,  1)  (  5, 34,  9)  (  5, 37,  3)
  0 -0.1395E-02  0  0.9921E-03  0 -0.1389E-02  0 -0.1202E-02  0  0.7406E-03
   (  5, 38,  1)  (  5, 32,  4)  (  5, 34,  7)  (  5, 14,  2)  (  5, 13,  1)
  0 -0.6872E-03  0 -0.3515E-03  0 -0.3557E-03  0  0.2916E-03  0 -0.2288E-03
   (  5, 12,  1)  (  5, 40,  2)  (  5, 35,  4)  (  5, 38,  2)  (  5, 32,  2)
  1  0.1626E-03  0 -0.2394E-03  0  0.2077E-03  0 -0.3003E-03  0 -0.2152E-03
   (  5, 30,  2)  (  5, 13,  1)  (  5, 35,  1)  (  5, 33,  2)  (  5, 38,  2)
  0  0.1262E-03  0 -0.1020E-03  0 -0.1197E-03  0 -0.6036E-04  0  0.5831E-04
   (  5, 35,  1)  (  5, 36,  5)  (  5, 39,  1)  (  5, 24,  8)  (  5, 41,  1)
  0  0.4147E-04  0 -0.4645E-04  0 -0.4011E-04  0  0.3017E-04  0 -0.2462E-04
   (  5, 35,  3)  (  5, 32,  3)  (  5, 30,  9)  (  5, 33, 10)  (  5, 34,  8)
  0 -0.2093E-04  0 -0.1813E-04  0 -0.1326E-04  0  0.1067E-04  0 -0.1020E-04
   (  5, 34,  3)  (  5, 25,  1)  (  5, 38,  8)  (  5, 34,  8)  (  5, 36,  8)
  0  0.6728E-05  0  0.7055E-05  0 -0.4710E-05  0 -0.5501E-05  0 -0.3560E-05
   (  5, 30,  2)  (  5, 36,  1)  (  5, 39,  2)  (  5, 14,  1)  (  5, 37,  1)
  0 -0.2819E-05  0  0.1592E-05  0 -0.2152E-05  0  0.1406E-05  0 -0.6590E-06
   (  5, 34,  1)  (  5, 35,  2)  (  5, 40,  1)  (  5, 41,  1)  (  5, 29,  2)
  1  0.6942E-06
   (  5, 30,  2)

 MAXIMUM RESIDUAL FOR EACH ITERATION (1 INDICATES THE FIRST INNER ITERATION):

    RESIDUAL       RESIDUAL       RESIDUAL       RESIDUAL       RESIDUAL    
   LAYER,ROW,COL  LAYER,ROW,COL  LAYER,ROW,COL  LAYER,ROW,COL  LAYER,ROW,COL
 ---------------------------------------------------------------------------
  1  0.3746E-03  0  0.3452E-03  0 -0.3311E-03  0 -0.3097E-03  0 -0.2752E-03
   (  3,  3,  1)  (  3,  3,  1)  (  3,  4,  4)  (  3,  4,  4)  (  3,  4,  4)
  0 -0.2301E-03  0 -0.1859E-03  0 -0.1453E-03  0 -0.1083E-03  0 -0.8673E-04
   (  3,  4,  4)  (  3,  4,  3)  (  3,  4,  3)  (  3,  3,  9)  (  3,  3,  9)
  0 -0.6969E-04  0 -0.6083E-04  0 -0.5475E-04  0 -0.4320E-04  0 -0.3322E-04
   (  3,  3,  9)  (  3,  3,  9)  (  3,  3,  9)  (  3,  3,  9)  (  3,  3,  9)
  0 -0.2827E-04  0 -0.2473E-04  0 -0.1846E-04  0 -0.1539E-04  0 -0.1344E-04
   (  3,  3,  9)  (  3,  3,  9)  (  3,  3,  7)  (  3,  3,  7)  (  3,  3,  7)
  0 -0.1221E-04  0 -0.1162E-04  0 -0.9276E-05  0 -0.6916E-05  0 -0.5040E-05
   (  3,  3,  7)  (  3,  3,  7)  (  3,  3,  7)  (  3,  3,  7)  (  3,  3,  2)
  0 -0.3630E-05  0 -0.3053E-05  0 -0.2464E-05  0 -0.2190E-05  0 -0.1686E-05
   (  3,  3,  2)  (  3,  3,  2)  (  3,  3,  2)  (  3,  3,  2)  (  3,  3,  2)
  1 -0.1799E-05  0 -0.1643E-05  0 -0.1534E-05  0 -0.1241E-05  0 -0.1088E-05
   (  3,  3,  2)  (  3,  3,  2)  (  3,  3,  2)  (  3,  3,  2)  (  3,  3,  2)
  0 -0.9006E-06  0 -0.7891E-06  0 -0.6748E-06  0 -0.5959E-06  0 -0.5047E-06
   (  3,  3,  2)  (  3,  3,  2)  (  3,  3,  2)  (  3,  3,  2)  (  3,  3,  2)
  0 -0.4488E-06  0 -0.4049E-06  0 -0.3281E-06  0 -0.2410E-06  0 -0.1935E-06
   (  3,  3,  2)  (  3,  3,  2)  (  3,  3,  2)  (  3,  3,  2)  (  3,  3,  2)
  0 -0.1692E-06  0 -0.1218E-06  0 -0.8722E-07  0 -0.6485E-07  0 -0.5182E-07
   (  3,  3,  2)  (  3,  3,  2)  (  3,  3,  2)  (  3,  3,  2)  (  3,  3,  2)
  0 -0.4655E-07  0  0.3374E-07  0  0.2926E-07  0  0.2209E-07  0  0.1629E-07
   (  3,  3,  2)  (  3,  3,  1)  (  3,  3,  1)  (  3,  3,  1)  (  3,  3,  1)
  0  0.1192E-07  0  0.1101E-07  0  0.8556E-08  0  0.5602E-08  0  0.5415E-08
   (  3,  3,  1)  (  3,  3,  1)  (  3,  3,  1)  (  2,  3,  2)  (  2,  3,  2)
  1  0.5347E-08
   (  2,  3,  2)



 OUTPUT CONTROL FOR STRESS PERIOD  112   TIME STEP    1
    SAVE HEAD FOR ALL LAYERS
    SAVE DRAWDOWN FOR ALL LAYERS
    SAVE BUDGET
    PRINT BUDGET
 UBDSV1 SAVING "         STORAGE" ON UNIT   9 AT TIME STEP  1, STRESS PERIOD 112
 UBDSV2 SAVING "   CONSTANT HEAD" ON UNIT   9 AT TIME STEP  1, STRESS PERIOD 112
 UBDSV1 SAVING "FLOW RIGHT FACE " ON UNIT   9 AT TIME STEP  1, STRESS PERIOD 112
 UBDSV1 SAVING "FLOW FRONT FACE " ON UNIT   9 AT TIME STEP  1, STRESS PERIOD 112
 UBDSV1 SAVING "FLOW LOWER FACE " ON UNIT   9 AT TIME STEP  1, STRESS PERIOD 112
 UBDSV3 SAVING "        RECHARGE" ON UNIT   9 AT TIME STEP  1, STRESS PERIOD 112

 HEAD WILL BE SAVED ON UNIT   37 AT END OF TIME STEP    1, STRESS PERIOD  112

 DRAWDOWN WILL BE SAVED ON UNIT   38 AT END OF TIME STEP    1, STRESS PERIOD  112
1
  VOLUMETRIC BUDGET FOR ENTIRE MODEL AT END OF TIME STEP    1, STRESS PERIOD 112
  ------------------------------------------------------------------------------

     CUMULATIVE VOLUMES      L**3       RATES FOR THIS TIME STEP      L**3/T
     ------------------                 ------------------------

           IN:                                      IN:
           ---                                      ---
             STORAGE =       17495.7734               STORAGE =       2.3436E-03
       CONSTANT HEAD =       29337.7539         CONSTANT HEAD =       1.5169E-03
            RECHARGE =        1376.5345              RECHARGE =       1.0213E-04

            TOTAL IN =       48210.0625              TOTAL IN =       3.9626E-03

          OUT:                                     OUT:
          ----                                     ----
             STORAGE =       14787.8652               STORAGE =           0.0000
       CONSTANT HEAD =       33423.5469         CONSTANT HEAD =       3.9627E-03
            RECHARGE =           0.0000              RECHARGE =           0.0000

           TOTAL OUT =       48211.4141             TOTAL OUT =       3.9627E-03

            IN - OUT =          -1.3516              IN - OUT =      -1.6484E-07

 PERCENT DISCREPANCY =          -0.00     PERCENT DISCREPANCY =          -0.00






         TIME SUMMARY AT END OF TIME STEP    1 IN STRESS PERIOD  112
                    SECONDS     MINUTES      HOURS       DAYS        YEARS
                    -----------------------------------------------------------
   TIME STEP LENGTH  86400.      1440.0      24.000      1.0000     2.73785E-03
 STRESS PERIOD TIME  86400.      1440.0      24.000      1.0000     2.73785E-03
         TOTAL TIME 1.34784E+07 2.24640E+05  3744.0      156.00     0.42710    
1
1
                            STRESS PERIOD NO.  113, LENGTH =   86400.00    
                            -----------------------------------------------

                              NUMBER OF TIME STEPS =     1

                               MULTIPLIER FOR DELT =     1.000

                            INITIAL TIME STEP SIZE =   86400.00    

 REUSING RECH FROM LAST STRESS PERIOD

 CHD NO.   LAYER   ROW   COL    START HEAD        END HEAD         IFACE           
 ----------------------------------------------------------------------------------
      1      4      3      1       110.2           110.1           0.000    
      2      5      3      1       110.2           110.1           0.000    
      3      4      3      2       110.2           110.1           0.000    
      4      5      3      2       110.2           110.1           0.000    
      5      4      3      3       110.2           110.1           0.000    
      6      5      3      3       110.2           110.1           0.000    
      7      4      3      4       110.2           110.1           0.000    
      8      5      3      4       110.2           110.1           0.000    
      9      4      3      5       110.2           110.1           0.000    
     10      5      3      5       110.2           110.1           0.000    
     11      4      3      6       110.2           110.1           0.000    
     12      5      3      6       110.2           110.1           0.000    
     13      4      3      7       110.2           110.1           0.000    
     14      5      3      7       110.2           110.1           0.000    
     15      4      3      8       110.2           110.1           0.000    
     16      5      3      8       110.2           110.1           0.000    
     17      4      2      8       110.2           110.1           0.000    
     18      5      2      8       110.2           110.1           0.000    
     19      4      2      9       110.2           110.1           0.000    
     20      5      2      9       110.2           110.1           0.000    
     21      4      2     10       110.2           110.1           0.000    
     22      5      2     10       110.2           110.1           0.000    
     23      4      2     11       110.2           110.1           0.000    
     24      5      2     11       110.2           110.1           0.000    
     25      4      2     12       110.2           110.1           0.000    
     26      5      2     12       110.2           110.1           0.000    
     27      4      2     13       110.2           110.1           0.000    
     28      5      2     13       110.2           110.1           0.000    
     29      4      2     14       110.2           110.1           0.000    
     30      5      2     14       110.2           110.1           0.000    
     31      4      2     15       110.2           110.1           0.000    
     32      5      2     15       110.2           110.1           0.000    
     33      4      2     16       110.2           110.1           0.000    
     34      5      2     16       110.2           110.1           0.000    
     35      4      2     17       110.2           110.1           0.000    
     36      5      2     17       110.2           110.1           0.000    
     37      4      2     18       110.2           110.1           0.000    
     38      5      2     18       110.2           110.1           0.000    
     39      4      2     19       110.2           110.1           0.000    
     40      5      2     19       110.2           110.1           0.000    
     41      4      2     20       110.2           110.1           0.000    
     42      5      2     20       110.2           110.1           0.000    
     43      4      2     21       110.2           110.1           0.000    
     44      5      2     21       110.2           110.1           0.000    
     45      4      2     22       110.2           110.1           0.000    
     46      5      2     22       110.2           110.1           0.000    
     47      4      2     23       110.2           110.1           0.000    
     48      5      2     23       110.2           110.1           0.000    
     49      4      2     24       110.2           110.1           0.000    
     50      5      2     24       110.2           110.1           0.000    
     51      4      2     25       110.2           110.1           0.000    
     52      5      2     25       110.2           110.1           0.000    
     53      4      2     26       110.2           110.1           0.000    
     54      5      2     26       110.2           110.1           0.000    
     55      4      1     26       110.2           110.1           0.000    
     56      5      1     26       110.2           110.1           0.000    
     57      4      1     27       110.2           110.1           0.000    
     58      5      1     27       110.2           110.1           0.000    
     59      4      1     28       110.2           110.1           0.000    
     60      5      1     28       110.2           110.1           0.000    
     61      4      1     29       110.2           110.1           0.000    
     62      5      1     29       110.2           110.1           0.000    
     63      4      1     30       110.2           110.1           0.000    
     64      5      1     30       110.2           110.1           0.000    
     65      4      1     31       110.2           110.1           0.000    
     66      5      1     31       110.2           110.1           0.000    
     67      4      1     32       110.2           110.1           0.000    
     68      5      1     32       110.2           110.1           0.000    
     69      4      1     33       110.2           110.1           0.000    
     70      5      1     33       110.2           110.1           0.000    
     71      4      1     34       110.2           110.1           0.000    
     72      5      1     34       110.2           110.1           0.000    
     73      4      1     35       110.2           110.1           0.000    
     74      5      1     35       110.2           110.1           0.000    
     75      4     36     35       109.9           109.9           0.000    
     76      5     36     35       109.9           109.9           0.000    
     77      4     35     34       109.9           109.9           0.000    
     78      5     35     34       109.9           109.9           0.000    
     79      4     36     34       109.9           109.9           0.000    
     80      5     36     34       109.9           109.9           0.000    
     81      4     36     33       109.9           109.9           0.000    
     82      5     36     33       109.9           109.9           0.000    
     83      4     36     32       109.9           109.9           0.000    
     84      5     36     32       109.9           109.9           0.000    
     85      4     37     32       109.9           109.9           0.000    
     86      5     37     32       109.9           109.9           0.000    
     87      4     37     31       109.9           109.9           0.000    
     88      5     37     31       109.9           109.9           0.000    
     89      4     38     31       109.9           109.9           0.000    
     90      5     38     31       109.9           109.9           0.000    
     91      4     38     30       109.9           109.9           0.000    
     92      5     38     30       109.9           109.9           0.000    
     93      4     39     30       109.9           109.9           0.000    
     94      5     39     30       109.9           109.9           0.000    
     95      4     39     29       109.9           109.9           0.000    
     96      5     39     29       109.9           109.9           0.000    
     97      4     40     29       109.9           109.9           0.000    
     98      5     40     29       109.9           109.9           0.000    
     99      4     40     28       109.9           109.9           0.000    
    100      5     40     28       109.9           109.9           0.000    
    101      4     40     27       109.9           109.9           0.000    
    102      5     40     27       109.9           109.9           0.000    
    103      4     41     27       109.9           109.9           0.000    
    104      5     41     27       109.9           109.9           0.000    
    105      4     41     26       109.9           109.9           0.000    
    106      5     41     26       109.9           109.9           0.000    
    107      4     41     25       109.9           109.9           0.000    
    108      5     41     25       109.9           109.9           0.000    
    109      4     41     24       109.9           109.9           0.000    
    110      5     41     24       109.9           109.9           0.000    
    111      4     41     23       109.9           109.9           0.000    
    112      5     41     23       109.9           109.9           0.000    
    113      4     41     22       109.9           109.9           0.000    
    114      5     41     22       109.9           109.9           0.000    
    115      4     42     22       109.9           109.9           0.000    
    116      5     42     22       109.9           109.9           0.000    
    117      4     42     21       109.9           109.9           0.000    
    118      5     42     21       109.9           109.9           0.000    
    119      4     42     20       109.9           109.9           0.000    
    120      5     42     20       109.9           109.9           0.000    
    121      4     42     19       109.9           109.9           0.000    
    122      5     42     19       109.9           109.9           0.000    
    123      4     43     18       109.9           109.9           0.000    
    124      5     43     18       109.9           109.9           0.000    
    125      4     42     18       109.9           109.9           0.000    
    126      5     42     18       109.9           109.9           0.000    
    127      4     42     17       109.9           109.9           0.000    
    128      5     42     17       109.9           109.9           0.000    
    129      4     42     16       109.9           109.9           0.000    
    130      5     42     16       109.9           109.9           0.000    
    131      4     42     15       109.9           109.9           0.000    
    132      5     42     15       109.9           109.9           0.000    
    133      4     43     15       109.9           109.9           0.000    
    134      5     43     15       109.9           109.9           0.000    
    135      4     43     14       109.9           109.9           0.000    
    136      5     43     14       109.9           109.9           0.000    
    137      4     43     13       109.9           109.9           0.000    
    138      5     43     13       109.9           109.9           0.000    
    139      4     43     12       109.9           109.9           0.000    
    140      5     43     12       109.9           109.9           0.000    
    141      4     43     11       109.9           109.9           0.000    
    142      5     43     11       109.9           109.9           0.000    
    143      4     43     10       109.9           109.8           0.000    
    144      5     43     10       109.9           109.8           0.000    
    145      4     44     10       109.9           109.8           0.000    
    146      5     44     10       109.9           109.8           0.000    
    147      4     44      9       109.9           109.8           0.000    
    148      5     44      9       109.9           109.8           0.000    
    149      4     44      8       109.9           109.8           0.000    
    150      5     44      8       109.9           109.8           0.000    
    151      4     44      7       109.9           109.8           0.000    
    152      5     44      7       109.9           109.8           0.000    
    153      4     44      6       109.9           109.8           0.000    
    154      5     44      6       109.9           109.8           0.000    
    155      4     44      5       109.9           109.8           0.000    
    156      5     44      5       109.9           109.8           0.000    
    157      4     44      4       109.9           109.8           0.000    
    158      5     44      4       109.9           109.8           0.000    
    159      4     44      3       109.9           109.8           0.000    
    160      5     44      3       109.9           109.8           0.000    
    161      4     45      3       109.9           109.8           0.000    
    162      5     45      3       109.9           109.8           0.000    
    163      4     45      2       109.9           109.8           0.000    
    164      5     45      2       109.9           109.8           0.000    
    165      4     45      1       109.9           109.8           0.000    
    166      5     45      1       109.9           109.8           0.000    


    166 TIME-VARIANT SPECIFIED-HEAD CELLS

 SOLVING FOR HEAD 


     3 CALLS TO PCG ROUTINE FOR TIME STEP   1 IN STRESS PERIOD  113
    61 TOTAL ITERATIONS

 MAXIMUM HEAD CHANGE FOR EACH ITERATION (1 INDICATES THE FIRST INNER ITERATION):

    HEAD CHANGE    HEAD CHANGE    HEAD CHANGE    HEAD CHANGE    HEAD CHANGE 
   LAYER,ROW,COL  LAYER,ROW,COL  LAYER,ROW,COL  LAYER,ROW,COL  LAYER,ROW,COL
 ---------------------------------------------------------------------------
  1 -0.1922      0  0.1020      0  0.5828E-01  0  0.5061E-01  0 -0.5136E-01
   (  5, 43,  5)  (  5, 35,  1)  (  5, 40,  2)  (  5, 41,  2)  (  5, 37,  1)
  0 -0.4627E-01  0 -0.3722E-01  0  0.3945E-01  0  0.2775E-01  0 -0.2069E-01
   (  5, 39,  1)  (  5, 40,  1)  (  5, 37,  1)  (  5, 36,  6)  (  5, 36,  1)
  0  0.2018E-01  0 -0.1762E-01  0  0.7000E-02  0  0.1094E-01  0 -0.7064E-02
   (  5, 35,  9)  (  5, 32,  9)  (  5, 30,  3)  (  5, 30,  9)  (  5, 36,  9)
  0 -0.4806E-02  0  0.4569E-02  0  0.3529E-02  0  0.2810E-02  0 -0.2748E-02
   (  5, 34,  1)  (  5, 38,  1)  (  5, 35,  8)  (  5, 39,  1)  (  5, 37,  1)
  0  0.2289E-02  0 -0.1503E-02  0  0.1744E-02  0 -0.1331E-02  0  0.1003E-02
   (  5, 38,  4)  (  5, 36,  4)  (  5, 32,  3)  (  5, 13,  1)  (  5, 13,  1)
  0 -0.6764E-03  0  0.4849E-03  0 -0.4700E-03  0 -0.3130E-03  0 -0.3937E-03
   (  5, 40,  2)  (  5, 38,  1)  (  5, 35,  1)  (  5, 40,  2)  (  5, 33,  3)
  1  0.1612E-03  0 -0.2238E-03  0  0.2892E-03  0 -0.2681E-03  0  0.1569E-03
   (  5, 32,  3)  (  5, 13,  1)  (  5, 38,  4)  (  5, 37,  1)  (  5, 34,  4)
  0  0.1481E-03  0 -0.1057E-03  0 -0.1016E-03  0 -0.6729E-04  0  0.8348E-04
   (  5, 40,  2)  (  5, 25,  5)  (  5, 32,  8)  (  5, 39,  1)  (  5, 41,  2)
  0  0.3830E-04  0 -0.5903E-04  0 -0.4559E-04  0  0.3065E-04  0 -0.2956E-04
   (  5, 28,  2)  (  5, 39,  1)  (  5, 30,  9)  (  5, 13,  1)  (  5, 34,  9)
  0  0.2047E-04  0 -0.1409E-04  0 -0.1733E-04  0  0.1480E-04  0 -0.6092E-05
   (  5, 39,  1)  (  5, 36,  1)  (  5, 31,  8)  (  5, 34,  8)  (  5, 32,  4)
  0 -0.1163E-04  0  0.6525E-05  0  0.6863E-05  0 -0.6378E-05  0  0.3449E-05
   (  5, 36,  9)  (  5, 33,  6)  (  5, 36,  1)  (  5, 38,  1)  (  5, 32,  9)
  0  0.3920E-05  0 -0.3067E-05  0 -0.1101E-05  0  0.2529E-05  0  0.7754E-06
   (  5, 40,  2)  (  5, 42,  1)  (  5, 31,  2)  (  5, 43,  5)  (  5, 35,  4)
  1 -0.5952E-06
   (  5, 34,  2)

 MAXIMUM RESIDUAL FOR EACH ITERATION (1 INDICATES THE FIRST INNER ITERATION):

    RESIDUAL       RESIDUAL       RESIDUAL       RESIDUAL       RESIDUAL    
   LAYER,ROW,COL  LAYER,ROW,COL  LAYER,ROW,COL  LAYER,ROW,COL  LAYER,ROW,COL
 ---------------------------------------------------------------------------
  1  0.4728E-03  0  0.3855E-03  0  0.3480E-03  0  0.3119E-03  0  0.2693E-03
   (  3,  3,  1)  (  3,  3,  1)  (  3,  3,  1)  (  3,  3,  1)  (  3,  3,  1)
  0 -0.2364E-03  0 -0.2190E-03  0 -0.1836E-03  0 -0.1473E-03  0 -0.1176E-03
   (  4, 43,  6)  (  4, 43,  6)  (  4, 43,  5)  (  4, 43,  4)  (  4, 43,  4)
  0 -0.9012E-04  0 -0.7743E-04  0 -0.7419E-04  0 -0.6254E-04  0 -0.5079E-04
   (  4, 43,  4)  (  4, 44,  2)  (  4, 44,  2)  (  4, 44,  2)  (  4, 44,  2)
  0 -0.4687E-04  0 -0.3881E-04  0 -0.2936E-04  0 -0.2306E-04  0 -0.1945E-04
   (  4, 44,  2)  (  4, 44,  2)  (  4, 44,  2)  (  4, 44,  2)  (  4, 44,  2)
  0 -0.1577E-04  0 -0.1346E-04  0 -0.1109E-04  0 -0.7420E-05  0 -0.5339E-05
   (  4, 44,  2)  (  4, 44,  2)  (  4, 44,  2)  (  4, 44,  2)  (  4, 34, 35)
  0 -0.3938E-05  0 -0.3204E-05  0 -0.2720E-05  0 -0.2271E-05  0 -0.1724E-05
   (  4, 34, 35)  (  4, 34, 35)  (  4, 34, 35)  (  4, 34, 35)  (  4, 34, 35)
  1 -0.1714E-05  0 -0.1601E-05  0 -0.1326E-05  0 -0.1225E-05  0 -0.1111E-05
   (  4, 34, 35)  (  4, 34, 35)  (  3,  3,  2)  (  3,  3,  2)  (  3,  3,  2)
  0 -0.8848E-06  0 -0.7925E-06  0 -0.6232E-06  0 -0.5248E-06  0 -0.4225E-06
   (  3,  3,  2)  (  3,  3,  2)  (  3,  3,  2)  (  3,  3,  2)  (  3,  3,  2)
  0 -0.3936E-06  0 -0.3294E-06  0  0.2576E-06  0  0.2012E-06  0  0.1548E-06
   (  3,  3,  2)  (  3,  3,  2)  (  3,  3,  1)  (  3,  3,  1)  (  3,  3,  1)
  0  0.1205E-06  0  0.1102E-06  0  0.8481E-07  0  0.6315E-07  0  0.5968E-07
   (  3,  3,  1)  (  3,  3,  1)  (  3,  3,  1)  (  3,  3,  1)  (  3,  3,  1)
  0  0.4576E-07  0  0.3725E-07  0  0.3228E-07  0  0.2384E-07  0  0.1811E-07
   (  3,  3,  1)  (  3,  3,  1)  (  3,  3,  1)  (  3,  3,  1)  (  3,  3,  1)
  0  0.1322E-07  0  0.9977E-08  0  0.9393E-08  0  0.6001E-08  0  0.5559E-08
   (  3,  3,  1)  (  3,  3,  1)  (  3,  3,  1)  (  3,  3,  1)  (  3,  3,  1)
  1  0.5485E-08
   (  3,  3,  1)



 OUTPUT CONTROL FOR STRESS PERIOD  113   TIME STEP    1
    SAVE HEAD FOR ALL LAYERS
    SAVE DRAWDOWN FOR ALL LAYERS
    SAVE BUDGET
    PRINT BUDGET
 UBDSV1 SAVING "         STORAGE" ON UNIT   9 AT TIME STEP  1, STRESS PERIOD 113
 UBDSV2 SAVING "   CONSTANT HEAD" ON UNIT   9 AT TIME STEP  1, STRESS PERIOD 113
 UBDSV1 SAVING "FLOW RIGHT FACE " ON UNIT   9 AT TIME STEP  1, STRESS PERIOD 113
 UBDSV1 SAVING "FLOW FRONT FACE " ON UNIT   9 AT TIME STEP  1, STRESS PERIOD 113
 UBDSV1 SAVING "FLOW LOWER FACE " ON UNIT   9 AT TIME STEP  1, STRESS PERIOD 113
 UBDSV3 SAVING "        RECHARGE" ON UNIT   9 AT TIME STEP  1, STRESS PERIOD 113

 HEAD WILL BE SAVED ON UNIT   37 AT END OF TIME STEP    1, STRESS PERIOD  113

 DRAWDOWN WILL BE SAVED ON UNIT   38 AT END OF TIME STEP    1, STRESS PERIOD  113
1
  VOLUMETRIC BUDGET FOR ENTIRE MODEL AT END OF TIME STEP    1, STRESS PERIOD 113
  ------------------------------------------------------------------------------

     CUMULATIVE VOLUMES      L**3       RATES FOR THIS TIME STEP      L**3/T
     ------------------                 ------------------------

           IN:                                      IN:
           ---                                      ---
             STORAGE =       17692.9141               STORAGE =       2.2817E-03
       CONSTANT HEAD =       29464.8613         CONSTANT HEAD =       1.4711E-03
            RECHARGE =        1385.3585              RECHARGE =       1.0213E-04

            TOTAL IN =       48543.1328              TOTAL IN =       3.8550E-03

          OUT:                                     OUT:
          ----                                     ----
             STORAGE =       14787.8652               STORAGE =           0.0000
       CONSTANT HEAD =       33756.6406         CONSTANT HEAD =       3.8552E-03
            RECHARGE =           0.0000              RECHARGE =           0.0000

           TOTAL OUT =       48544.5078             TOTAL OUT =       3.8552E-03

            IN - OUT =          -1.3750              IN - OUT =      -2.3912E-07

 PERCENT DISCREPANCY =          -0.00     PERCENT DISCREPANCY =          -0.01






         TIME SUMMARY AT END OF TIME STEP    1 IN STRESS PERIOD  113
                    SECONDS     MINUTES      HOURS       DAYS        YEARS
                    -----------------------------------------------------------
   TIME STEP LENGTH  86400.      1440.0      24.000      1.0000     2.73785E-03
 STRESS PERIOD TIME  86400.      1440.0      24.000      1.0000     2.73785E-03
         TOTAL TIME 1.35648E+07 2.26080E+05  3768.0      157.00     0.42984    
1
1
                            STRESS PERIOD NO.  114, LENGTH =   86400.00    
                            -----------------------------------------------

                              NUMBER OF TIME STEPS =     1

                               MULTIPLIER FOR DELT =     1.000

                            INITIAL TIME STEP SIZE =   86400.00    

 REUSING RECH FROM LAST STRESS PERIOD

 CHD NO.   LAYER   ROW   COL    START HEAD        END HEAD         IFACE           
 ----------------------------------------------------------------------------------
      1      4      3      1       110.1           110.1           0.000    
      2      5      3      1       110.1           110.1           0.000    
      3      4      3      2       110.1           110.1           0.000    
      4      5      3      2       110.1           110.1           0.000    
      5      4      3      3       110.1           110.1           0.000    
      6      5      3      3       110.1           110.1           0.000    
      7      4      3      4       110.1           110.1           0.000    
      8      5      3      4       110.1           110.1           0.000    
      9      4      3      5       110.1           110.1           0.000    
     10      5      3      5       110.1           110.1           0.000    
     11      4      3      6       110.1           110.1           0.000    
     12      5      3      6       110.1           110.1           0.000    
     13      4      3      7       110.1           110.1           0.000    
     14      5      3      7       110.1           110.1           0.000    
     15      4      3      8       110.1           110.1           0.000    
     16      5      3      8       110.1           110.1           0.000    
     17      4      2      8       110.1           110.1           0.000    
     18      5      2      8       110.1           110.1           0.000    
     19      4      2      9       110.1           110.1           0.000    
     20      5      2      9       110.1           110.1           0.000    
     21      4      2     10       110.1           110.1           0.000    
     22      5      2     10       110.1           110.1           0.000    
     23      4      2     11       110.1           110.1           0.000    
     24      5      2     11       110.1           110.1           0.000    
     25      4      2     12       110.1           110.1           0.000    
     26      5      2     12       110.1           110.1           0.000    
     27      4      2     13       110.1           110.1           0.000    
     28      5      2     13       110.1           110.1           0.000    
     29      4      2     14       110.1           110.1           0.000    
     30      5      2     14       110.1           110.1           0.000    
     31      4      2     15       110.1           110.1           0.000    
     32      5      2     15       110.1           110.1           0.000    
     33      4      2     16       110.1           110.1           0.000    
     34      5      2     16       110.1           110.1           0.000    
     35      4      2     17       110.1           110.1           0.000    
     36      5      2     17       110.1           110.1           0.000    
     37      4      2     18       110.1           110.1           0.000    
     38      5      2     18       110.1           110.1           0.000    
     39      4      2     19       110.1           110.1           0.000    
     40      5      2     19       110.1           110.1           0.000    
     41      4      2     20       110.1           110.1           0.000    
     42      5      2     20       110.1           110.1           0.000    
     43      4      2     21       110.1           110.1           0.000    
     44      5      2     21       110.1           110.1           0.000    
     45      4      2     22       110.1           110.1           0.000    
     46      5      2     22       110.1           110.1           0.000    
     47      4      2     23       110.1           110.1           0.000    
     48      5      2     23       110.1           110.1           0.000    
     49      4      2     24       110.1           110.1           0.000    
     50      5      2     24       110.1           110.1           0.000    
     51      4      2     25       110.1           110.1           0.000    
     52      5      2     25       110.1           110.1           0.000    
     53      4      2     26       110.1           110.1           0.000    
     54      5      2     26       110.1           110.1           0.000    
     55      4      1     26       110.1           110.1           0.000    
     56      5      1     26       110.1           110.1           0.000    
     57      4      1     27       110.1           110.1           0.000    
     58      5      1     27       110.1           110.1           0.000    
     59      4      1     28       110.1           110.1           0.000    
     60      5      1     28       110.1           110.1           0.000    
     61      4      1     29       110.1           110.1           0.000    
     62      5      1     29       110.1           110.1           0.000    
     63      4      1     30       110.1           110.1           0.000    
     64      5      1     30       110.1           110.1           0.000    
     65      4      1     31       110.1           110.1           0.000    
     66      5      1     31       110.1           110.1           0.000    
     67      4      1     32       110.1           110.1           0.000    
     68      5      1     32       110.1           110.1           0.000    
     69      4      1     33       110.1           110.1           0.000    
     70      5      1     33       110.1           110.1           0.000    
     71      4      1     34       110.1           110.1           0.000    
     72      5      1     34       110.1           110.1           0.000    
     73      4      1     35       110.1           110.1           0.000    
     74      5      1     35       110.1           110.1           0.000    
     75      4     36     35       109.9           109.8           0.000    
     76      5     36     35       109.9           109.8           0.000    
     77      4     35     34       109.9           109.8           0.000    
     78      5     35     34       109.9           109.8           0.000    
     79      4     36     34       109.9           109.8           0.000    
     80      5     36     34       109.9           109.8           0.000    
     81      4     36     33       109.9           109.8           0.000    
     82      5     36     33       109.9           109.8           0.000    
     83      4     36     32       109.9           109.8           0.000    
     84      5     36     32       109.9           109.8           0.000    
     85      4     37     32       109.9           109.8           0.000    
     86      5     37     32       109.9           109.8           0.000    
     87      4     37     31       109.9           109.8           0.000    
     88      5     37     31       109.9           109.8           0.000    
     89      4     38     31       109.9           109.8           0.000    
     90      5     38     31       109.9           109.8           0.000    
     91      4     38     30       109.9           109.8           0.000    
     92      5     38     30       109.9           109.8           0.000    
     93      4     39     30       109.9           109.8           0.000    
     94      5     39     30       109.9           109.8           0.000    
     95      4     39     29       109.9           109.8           0.000    
     96      5     39     29       109.9           109.8           0.000    
     97      4     40     29       109.9           109.8           0.000    
     98      5     40     29       109.9           109.8           0.000    
     99      4     40     28       109.9           109.8           0.000    
    100      5     40     28       109.9           109.8           0.000    
    101      4     40     27       109.9           109.8           0.000    
    102      5     40     27       109.9           109.8           0.000    
    103      4     41     27       109.9           109.8           0.000    
    104      5     41     27       109.9           109.8           0.000    
    105      4     41     26       109.9           109.8           0.000    
    106      5     41     26       109.9           109.8           0.000    
    107      4     41     25       109.9           109.8           0.000    
    108      5     41     25       109.9           109.8           0.000    
    109      4     41     24       109.9           109.8           0.000    
    110      5     41     24       109.9           109.8           0.000    
    111      4     41     23       109.9           109.8           0.000    
    112      5     41     23       109.9           109.8           0.000    
    113      4     41     22       109.9           109.8           0.000    
    114      5     41     22       109.9           109.8           0.000    
    115      4     42     22       109.9           109.8           0.000    
    116      5     42     22       109.9           109.8           0.000    
    117      4     42     21       109.9           109.8           0.000    
    118      5     42     21       109.9           109.8           0.000    
    119      4     42     20       109.9           109.8           0.000    
    120      5     42     20       109.9           109.8           0.000    
    121      4     42     19       109.9           109.8           0.000    
    122      5     42     19       109.9           109.8           0.000    
    123      4     43     18       109.9           109.8           0.000    
    124      5     43     18       109.9           109.8           0.000    
    125      4     42     18       109.9           109.8           0.000    
    126      5     42     18       109.9           109.8           0.000    
    127      4     42     17       109.9           109.8           0.000    
    128      5     42     17       109.9           109.8           0.000    
    129      4     42     16       109.9           109.8           0.000    
    130      5     42     16       109.9           109.8           0.000    
    131      4     42     15       109.9           109.8           0.000    
    132      5     42     15       109.9           109.8           0.000    
    133      4     43     15       109.9           109.8           0.000    
    134      5     43     15       109.9           109.8           0.000    
    135      4     43     14       109.9           109.8           0.000    
    136      5     43     14       109.9           109.8           0.000    
    137      4     43     13       109.9           109.8           0.000    
    138      5     43     13       109.9           109.8           0.000    
    139      4     43     12       109.9           109.8           0.000    
    140      5     43     12       109.9           109.8           0.000    
    141      4     43     11       109.9           109.8           0.000    
    142      5     43     11       109.9           109.8           0.000    
    143      4     43     10       109.8           109.8           0.000    
    144      5     43     10       109.8           109.8           0.000    
    145      4     44     10       109.8           109.8           0.000    
    146      5     44     10       109.8           109.8           0.000    
    147      4     44      9       109.8           109.8           0.000    
    148      5     44      9       109.8           109.8           0.000    
    149      4     44      8       109.8           109.8           0.000    
    150      5     44      8       109.8           109.8           0.000    
    151      4     44      7       109.8           109.8           0.000    
    152      5     44      7       109.8           109.8           0.000    
    153      4     44      6       109.8           109.8           0.000    
    154      5     44      6       109.8           109.8           0.000    
    155      4     44      5       109.8           109.8           0.000    
    156      5     44      5       109.8           109.8           0.000    
    157      4     44      4       109.8           109.8           0.000    
    158      5     44      4       109.8           109.8           0.000    
    159      4     44      3       109.8           109.8           0.000    
    160      5     44      3       109.8           109.8           0.000    
    161      4     45      3       109.8           109.8           0.000    
    162      5     45      3       109.8           109.8           0.000    
    163      4     45      2       109.8           109.8           0.000    
    164      5     45      2       109.8           109.8           0.000    
    165      4     45      1       109.8           109.8           0.000    
    166      5     45      1       109.8           109.8           0.000    


    166 TIME-VARIANT SPECIFIED-HEAD CELLS

 SOLVING FOR HEAD 


     4 CALLS TO PCG ROUTINE FOR TIME STEP   1 IN STRESS PERIOD  114
    63 TOTAL ITERATIONS

 MAXIMUM HEAD CHANGE FOR EACH ITERATION (1 INDICATES THE FIRST INNER ITERATION):

    HEAD CHANGE    HEAD CHANGE    HEAD CHANGE    HEAD CHANGE    HEAD CHANGE 
   LAYER,ROW,COL  LAYER,ROW,COL  LAYER,ROW,COL  LAYER,ROW,COL  LAYER,ROW,COL
 ---------------------------------------------------------------------------
  1 -0.2045      0  0.1080      0  0.6207E-01  0  0.5473E-01  0 -0.5920E-01
   (  5, 43,  5)  (  5, 35,  1)  (  5, 40,  2)  (  5, 41,  2)  (  5, 37,  1)
  0 -0.4656E-01  0 -0.4289E-01  0  0.4567E-01  0  0.2892E-01  0 -0.2180E-01
   (  5, 39,  1)  (  5, 40,  1)  (  5, 37,  1)  (  5, 36,  6)  (  5, 35,  1)
  0  0.2188E-01  0 -0.1076E-01  0 -0.1108E-01  0  0.1224E-01  0 -0.8617E-02
   (  5, 35,  9)  (  5, 32,  8)  (  5, 33, 10)  (  5, 30,  9)  (  5, 36,  8)
  0  0.5472E-02  0 -0.4490E-02  0  0.4158E-02  0  0.3123E-02  0 -0.3000E-02
   (  5, 37,  1)  (  5, 34,  1)  (  5, 36,  4)  (  5, 39,  1)  (  5, 37,  1)
  0 -0.2344E-02  0  0.1093E-02  0 -0.2000E-02  0 -0.1645E-02  0  0.1250E-02
   (  5, 29,  1)  (  5, 34,  1)  (  5, 36,  4)  (  5, 13,  1)  (  5, 13,  1)
  0 -0.8040E-03  0  0.6472E-03  0 -0.5245E-03  0  0.3810E-03  0 -0.4659E-03
   (  5, 40,  2)  (  5, 38,  1)  (  5, 36,  1)  (  5, 36,  3)  (  5, 33,  3)
  1  0.1678E-03  0 -0.2497E-03  0  0.2700E-03  0 -0.2323E-03  0 -0.1571E-03
   (  5, 27,  2)  (  5, 38,  5)  (  5, 33,  1)  (  5, 41,  2)  (  5, 23,  7)
  0  0.1181E-03  0 -0.1190E-03  0  0.1391E-03  0 -0.1170E-03  0  0.9474E-04
   (  5, 34,  1)  (  5, 37,  2)  (  5, 37,  1)  (  5, 39,  1)  (  5, 37,  1)
  0 -0.3754E-04  0 -0.6577E-04  0  0.5289E-04  0  0.2730E-04  0 -0.2506E-04
   (  5, 32,  3)  (  5, 39,  1)  (  5, 41,  2)  (  5, 40,  5)  (  5, 34,  3)
  0 -0.2967E-04  0  0.2355E-04  0 -0.2063E-04  0  0.1565E-04  0 -0.9232E-05
   (  5, 13,  1)  (  5, 29,  9)  (  5, 33,  5)  (  5, 34,  8)  (  5, 32,  1)
  0 -0.1420E-04  0  0.8832E-05  0 -0.6227E-05  0 -0.5389E-05  0  0.4047E-05
   (  5, 36,  9)  (  5, 36,  1)  (  5, 38,  1)  (  5, 35,  6)  (  5, 40,  6)
  0 -0.3779E-05  0  0.2189E-05  0  0.2472E-05  0 -0.1136E-05  0  0.1552E-05
   (  5, 34,  1)  (  5, 38,  1)  (  5, 36,  1)  (  5, 28,  2)  (  5, 33,  4)
  1  0.1239E-05  0  0.6409E-06  1 -0.5985E-06
   (  5, 40,  3)  (  5, 32,  3)  (  5, 29,  3)

 MAXIMUM RESIDUAL FOR EACH ITERATION (1 INDICATES THE FIRST INNER ITERATION):

    RESIDUAL       RESIDUAL       RESIDUAL       RESIDUAL       RESIDUAL    
   LAYER,ROW,COL  LAYER,ROW,COL  LAYER,ROW,COL  LAYER,ROW,COL  LAYER,ROW,COL
 ---------------------------------------------------------------------------
  1  0.5542E-03  0  0.4563E-03  0  0.4201E-03  0  0.3768E-03  0  0.3149E-03
   (  4, 44,  2)  (  4, 35, 35)  (  4, 35, 35)  (  4, 35, 35)  (  4, 35, 35)
  0  0.2536E-03  0 -0.2374E-03  0 -0.2035E-03  0 -0.1664E-03  0 -0.1372E-03
   (  4, 35, 35)  (  4, 43,  6)  (  4, 43,  5)  (  4, 43,  4)  (  4, 43,  4)
  0 -0.1079E-03  0 -0.9802E-04  0 -0.8215E-04  0 -0.6908E-04  0 -0.5703E-04
   (  4, 43,  4)  (  4, 43,  4)  (  4, 43,  4)  (  4, 44,  2)  (  4, 44,  2)
  0 -0.4830E-04  0 -0.4433E-04  0 -0.3426E-04  0 -0.2710E-04  0 -0.2242E-04
   (  4, 44,  2)  (  4, 44,  2)  (  4, 44,  2)  (  4, 44,  2)  (  4, 44,  2)
  0 -0.1893E-04  0 -0.1783E-04  0 -0.1304E-04  0 -0.8955E-05  0 -0.7026E-05
   (  4, 44,  2)  (  4, 44,  2)  (  4, 44,  2)  (  4, 34, 35)  (  4, 34, 35)
  0 -0.5293E-05  0 -0.4430E-05  0 -0.3519E-05  0 -0.3013E-05  0 -0.2425E-05
   (  4, 34, 35)  (  4, 34, 35)  (  4, 34, 35)  (  4, 34, 35)  (  4, 34, 35)
  1 -0.2412E-05  0 -0.2323E-05  0 -0.2204E-05  0 -0.1739E-05  0 -0.1409E-05
   (  4, 34, 35)  (  4, 34, 35)  (  4, 34, 35)  (  4, 34, 35)  (  4, 34, 35)
  0 -0.1120E-05  0 -0.9473E-06  0 -0.7045E-06  0 -0.5608E-06  0 -0.4243E-06
   (  4, 34, 35)  (  4, 34, 35)  (  4, 34, 35)  (  4, 34, 35)  (  4, 34, 35)
  0 -0.4050E-06  0 -0.3236E-06  0 -0.2640E-06  0  0.2114E-06  0  0.1964E-06
   (  4, 44,  2)  (  4, 44,  2)  (  4, 44,  2)  (  3,  3,  1)  (  3,  3,  1)
  0  0.1481E-06  0  0.1176E-06  0  0.8790E-07  0  0.6977E-07  0  0.6369E-07
   (  3,  3,  1)  (  3,  3,  1)  (  3,  3,  1)  (  3,  3,  1)  (  3,  3,  1)
  0  0.4722E-07  0  0.3738E-07  0  0.3272E-07  0  0.2468E-07  0  0.1866E-07
   (  3,  3,  1)  (  3,  3,  1)  (  3,  3,  1)  (  3,  3,  1)  (  3,  3,  1)
  0  0.1519E-07  0  0.1331E-07  0  0.1028E-07  0  0.9662E-08  0  0.7906E-08
   (  3,  3,  1)  (  3,  3,  1)  (  3,  3,  1)  (  3,  3,  1)  (  3,  3,  1)
  1  0.7774E-08  0  0.7684E-08  1  0.7645E-08
   (  3,  3,  1)  (  3,  3,  1)  (  3,  3,  1)



 OUTPUT CONTROL FOR STRESS PERIOD  114   TIME STEP    1
    SAVE HEAD FOR ALL LAYERS
    SAVE DRAWDOWN FOR ALL LAYERS
    SAVE BUDGET
    PRINT BUDGET
 UBDSV1 SAVING "         STORAGE" ON UNIT   9 AT TIME STEP  1, STRESS PERIOD 114
 UBDSV2 SAVING "   CONSTANT HEAD" ON UNIT   9 AT TIME STEP  1, STRESS PERIOD 114
 UBDSV1 SAVING "FLOW RIGHT FACE " ON UNIT   9 AT TIME STEP  1, STRESS PERIOD 114
 UBDSV1 SAVING "FLOW FRONT FACE " ON UNIT   9 AT TIME STEP  1, STRESS PERIOD 114
 UBDSV1 SAVING "FLOW LOWER FACE " ON UNIT   9 AT TIME STEP  1, STRESS PERIOD 114
 UBDSV3 SAVING "        RECHARGE" ON UNIT   9 AT TIME STEP  1, STRESS PERIOD 114

 HEAD WILL BE SAVED ON UNIT   37 AT END OF TIME STEP    1, STRESS PERIOD  114

 DRAWDOWN WILL BE SAVED ON UNIT   38 AT END OF TIME STEP    1, STRESS PERIOD  114
1
  VOLUMETRIC BUDGET FOR ENTIRE MODEL AT END OF TIME STEP    1, STRESS PERIOD 114
  ------------------------------------------------------------------------------

     CUMULATIVE VOLUMES      L**3       RATES FOR THIS TIME STEP      L**3/T
     ------------------                 ------------------------

           IN:                                      IN:
           ---                                      ---
             STORAGE =       17889.5098               STORAGE =       2.2754E-03
       CONSTANT HEAD =       29594.1914         CONSTANT HEAD =       1.4969E-03
            RECHARGE =        1394.1825              RECHARGE =       1.0213E-04

            TOTAL IN =       48877.8867              TOTAL IN =       3.8744E-03

          OUT:                                     OUT:
          ----                                     ----
             STORAGE =       14787.8652               STORAGE =           0.0000
       CONSTANT HEAD =       34091.4141         CONSTANT HEAD =       3.8747E-03
            RECHARGE =           0.0000              RECHARGE =           0.0000

           TOTAL OUT =       48879.2812             TOTAL OUT =       3.8747E-03

            IN - OUT =          -1.3945              IN - OUT =      -2.7544E-07

 PERCENT DISCREPANCY =          -0.00     PERCENT DISCREPANCY =          -0.01






         TIME SUMMARY AT END OF TIME STEP    1 IN STRESS PERIOD  114
                    SECONDS     MINUTES      HOURS       DAYS        YEARS
                    -----------------------------------------------------------
   TIME STEP LENGTH  86400.      1440.0      24.000      1.0000     2.73785E-03
 STRESS PERIOD TIME  86400.      1440.0      24.000      1.0000     2.73785E-03
         TOTAL TIME 1.36512E+07 2.27520E+05  3792.0      158.00     0.43258    
1
1
                            STRESS PERIOD NO.  115, LENGTH =   259200.0    
                            -----------------------------------------------

                              NUMBER OF TIME STEPS =     3

                               MULTIPLIER FOR DELT =     1.000

                            INITIAL TIME STEP SIZE =   86400.00    

 REUSING RECH FROM LAST STRESS PERIOD

 CHD NO.   LAYER   ROW   COL    START HEAD        END HEAD         IFACE           
 ----------------------------------------------------------------------------------
      1      4      3      1       110.1           110.0           0.000    
      2      5      3      1       110.1           110.0           0.000    
      3      4      3      2       110.1           110.0           0.000    
      4      5      3      2       110.1           110.0           0.000    
      5      4      3      3       110.1           110.0           0.000    
      6      5      3      3       110.1           110.0           0.000    
      7      4      3      4       110.1           110.0           0.000    
      8      5      3      4       110.1           110.0           0.000    
      9      4      3      5       110.1           110.0           0.000    
     10      5      3      5       110.1           110.0           0.000    
     11      4      3      6       110.1           110.0           0.000    
     12      5      3      6       110.1           110.0           0.000    
     13      4      3      7       110.1           110.0           0.000    
     14      5      3      7       110.1           110.0           0.000    
     15      4      3      8       110.1           110.0           0.000    
     16      5      3      8       110.1           110.0           0.000    
     17      4      2      8       110.1           110.0           0.000    
     18      5      2      8       110.1           110.0           0.000    
     19      4      2      9       110.1           110.0           0.000    
     20      5      2      9       110.1           110.0           0.000    
     21      4      2     10       110.1           110.0           0.000    
     22      5      2     10       110.1           110.0           0.000    
     23      4      2     11       110.1           110.0           0.000    
     24      5      2     11       110.1           110.0           0.000    
     25      4      2     12       110.1           110.0           0.000    
     26      5      2     12       110.1           110.0           0.000    
     27      4      2     13       110.1           110.0           0.000    
     28      5      2     13       110.1           110.0           0.000    
     29      4      2     14       110.1           110.0           0.000    
     30      5      2     14       110.1           110.0           0.000    
     31      4      2     15       110.1           110.0           0.000    
     32      5      2     15       110.1           110.0           0.000    
     33      4      2     16       110.1           110.0           0.000    
     34      5      2     16       110.1           110.0           0.000    
     35      4      2     17       110.1           110.0           0.000    
     36      5      2     17       110.1           110.0           0.000    
     37      4      2     18       110.1           110.0           0.000    
     38      5      2     18       110.1           110.0           0.000    
     39      4      2     19       110.1           110.0           0.000    
     40      5      2     19       110.1           110.0           0.000    
     41      4      2     20       110.1           110.0           0.000    
     42      5      2     20       110.1           110.0           0.000    
     43      4      2     21       110.1           110.0           0.000    
     44      5      2     21       110.1           110.0           0.000    
     45      4      2     22       110.1           110.0           0.000    
     46      5      2     22       110.1           110.0           0.000    
     47      4      2     23       110.1           110.0           0.000    
     48      5      2     23       110.1           110.0           0.000    
     49      4      2     24       110.1           110.0           0.000    
     50      5      2     24       110.1           110.0           0.000    
     51      4      2     25       110.1           110.0           0.000    
     52      5      2     25       110.1           110.0           0.000    
     53      4      2     26       110.1           110.0           0.000    
     54      5      2     26       110.1           110.0           0.000    
     55      4      1     26       110.1           110.0           0.000    
     56      5      1     26       110.1           110.0           0.000    
     57      4      1     27       110.1           110.0           0.000    
     58      5      1     27       110.1           110.0           0.000    
     59      4      1     28       110.1           110.0           0.000    
     60      5      1     28       110.1           110.0           0.000    
     61      4      1     29       110.1           110.0           0.000    
     62      5      1     29       110.1           110.0           0.000    
     63      4      1     30       110.1           110.0           0.000    
     64      5      1     30       110.1           110.0           0.000    
     65      4      1     31       110.1           110.0           0.000    
     66      5      1     31       110.1           110.0           0.000    
     67      4      1     32       110.1           110.0           0.000    
     68      5      1     32       110.1           110.0           0.000    
     69      4      1     33       110.1           110.0           0.000    
     70      5      1     33       110.1           110.0           0.000    
     71      4      1     34       110.1           110.0           0.000    
     72      5      1     34       110.1           110.0           0.000    
     73      4      1     35       110.1           110.0           0.000    
     74      5      1     35       110.1           110.0           0.000    
     75      4     36     35       109.8           109.8           0.000    
     76      5     36     35       109.8           109.8           0.000    
     77      4     35     34       109.8           109.8           0.000    
     78      5     35     34       109.8           109.8           0.000    
     79      4     36     34       109.8           109.8           0.000    
     80      5     36     34       109.8           109.8           0.000    
     81      4     36     33       109.8           109.8           0.000    
     82      5     36     33       109.8           109.8           0.000    
     83      4     36     32       109.8           109.8           0.000    
     84      5     36     32       109.8           109.8           0.000    
     85      4     37     32       109.8           109.8           0.000    
     86      5     37     32       109.8           109.8           0.000    
     87      4     37     31       109.8           109.8           0.000    
     88      5     37     31       109.8           109.8           0.000    
     89      4     38     31       109.8           109.8           0.000    
     90      5     38     31       109.8           109.8           0.000    
     91      4     38     30       109.8           109.8           0.000    
     92      5     38     30       109.8           109.8           0.000    
     93      4     39     30       109.8           109.8           0.000    
     94      5     39     30       109.8           109.8           0.000    
     95      4     39     29       109.8           109.8           0.000    
     96      5     39     29       109.8           109.8           0.000    
     97      4     40     29       109.8           109.8           0.000    
     98      5     40     29       109.8           109.8           0.000    
     99      4     40     28       109.8           109.8           0.000    
    100      5     40     28       109.8           109.8           0.000    
    101      4     40     27       109.8           109.8           0.000    
    102      5     40     27       109.8           109.8           0.000    
    103      4     41     27       109.8           109.8           0.000    
    104      5     41     27       109.8           109.8           0.000    
    105      4     41     26       109.8           109.8           0.000    
    106      5     41     26       109.8           109.8           0.000    
    107      4     41     25       109.8           109.8           0.000    
    108      5     41     25       109.8           109.8           0.000    
    109      4     41     24       109.8           109.8           0.000    
    110      5     41     24       109.8           109.8           0.000    
    111      4     41     23       109.8           109.8           0.000    
    112      5     41     23       109.8           109.8           0.000    
    113      4     41     22       109.8           109.8           0.000    
    114      5     41     22       109.8           109.8           0.000    
    115      4     42     22       109.8           109.8           0.000    
    116      5     42     22       109.8           109.8           0.000    
    117      4     42     21       109.8           109.8           0.000    
    118      5     42     21       109.8           109.8           0.000    
    119      4     42     20       109.8           109.8           0.000    
    120      5     42     20       109.8           109.8           0.000    
    121      4     42     19       109.8           109.8           0.000    
    122      5     42     19       109.8           109.8           0.000    
    123      4     43     18       109.8           109.8           0.000    
    124      5     43     18       109.8           109.8           0.000    
    125      4     42     18       109.8           109.8           0.000    
    126      5     42     18       109.8           109.8           0.000    
    127      4     42     17       109.8           109.8           0.000    
    128      5     42     17       109.8           109.8           0.000    
    129      4     42     16       109.8           109.8           0.000    
    130      5     42     16       109.8           109.8           0.000    
    131      4     42     15       109.8           109.8           0.000    
    132      5     42     15       109.8           109.8           0.000    
    133      4     43     15       109.8           109.8           0.000    
    134      5     43     15       109.8           109.8           0.000    
    135      4     43     14       109.8           109.8           0.000    
    136      5     43     14       109.8           109.8           0.000    
    137      4     43     13       109.8           109.8           0.000    
    138      5     43     13       109.8           109.8           0.000    
    139      4     43     12       109.8           109.8           0.000    
    140      5     43     12       109.8           109.8           0.000    
    141      4     43     11       109.8           109.8           0.000    
    142      5     43     11       109.8           109.8           0.000    
    143      4     43     10       109.8           109.8           0.000    
    144      5     43     10       109.8           109.8           0.000    
    145      4     44     10       109.8           109.8           0.000    
    146      5     44     10       109.8           109.8           0.000    
    147      4     44      9       109.8           109.8           0.000    
    148      5     44      9       109.8           109.8           0.000    
    149      4     44      8       109.8           109.8           0.000    
    150      5     44      8       109.8           109.8           0.000    
    151      4     44      7       109.8           109.8           0.000    
    152      5     44      7       109.8           109.8           0.000    
    153      4     44      6       109.8           109.8           0.000    
    154      5     44      6       109.8           109.8           0.000    
    155      4     44      5       109.8           109.8           0.000    
    156      5     44      5       109.8           109.8           0.000    
    157      4     44      4       109.8           109.8           0.000    
    158      5     44      4       109.8           109.8           0.000    
    159      4     44      3       109.8           109.8           0.000    
    160      5     44      3       109.8           109.8           0.000    
    161      4     45      3       109.8           109.8           0.000    
    162      5     45      3       109.8           109.8           0.000    
    163      4     45      2       109.8           109.8           0.000    
    164      5     45      2       109.8           109.8           0.000    
    165      4     45      1       109.8           109.8           0.000    
    166      5     45      1       109.8           109.8           0.000    


    166 TIME-VARIANT SPECIFIED-HEAD CELLS

 SOLVING FOR HEAD 


     3 CALLS TO PCG ROUTINE FOR TIME STEP   1 IN STRESS PERIOD  115
    58 TOTAL ITERATIONS

 MAXIMUM HEAD CHANGE FOR EACH ITERATION (1 INDICATES THE FIRST INNER ITERATION):

    HEAD CHANGE    HEAD CHANGE    HEAD CHANGE    HEAD CHANGE    HEAD CHANGE 
   LAYER,ROW,COL  LAYER,ROW,COL  LAYER,ROW,COL  LAYER,ROW,COL  LAYER,ROW,COL
 ---------------------------------------------------------------------------
  1 -0.2762E-01  0  0.1791E-01  0 -0.1662E-01  0  0.2207E-01  0 -0.1869E-01
   (  5, 14,  3)  (  5, 27,  4)  (  5, 28,  2)  (  5, 33,  2)  (  5, 33,  3)
  0 -0.1335E-01  0 -0.1274E-01  0  0.7751E-02  0 -0.1030E-01  0  0.5493E-02
   (  5, 32,  8)  (  5, 36,  1)  (  5, 40,  5)  (  5, 39,  1)  (  5, 34,  7)
  0  0.4181E-02  0 -0.2988E-02  0  0.2480E-02  0 -0.1993E-02  0 -0.1897E-02
   (  5, 37,  6)  (  5, 30, 11)  (  5, 31,  2)  (  5, 20,  5)  (  5, 33, 10)
  0  0.1401E-02  0  0.1404E-02  0 -0.1060E-02  0  0.7302E-03  0 -0.4819E-03
   (  5, 34,  1)  (  5, 30,  8)  (  5, 17,  1)  (  5, 34,  9)  (  5, 38,  4)
  0 -0.5147E-03  0  0.3429E-03  0 -0.3689E-03  0  0.1900E-03  0 -0.2752E-03
   (  5, 28,  1)  (  5, 31,  5)  (  5, 40,  1)  (  5, 38,  2)  (  5, 36,  1)
  0  0.1566E-03  0 -0.1868E-03  0 -0.1239E-03  0  0.8586E-04  0 -0.7235E-04
   (  5, 39,  2)  (  5, 38,  1)  (  5, 34,  2)  (  5, 35,  1)  (  5, 14,  2)
  1  0.5984E-04  0 -0.4663E-04  0  0.4410E-04  0 -0.6245E-04  0 -0.4429E-04
   (  5, 14,  1)  (  5, 32,  2)  (  5, 30,  5)  (  5, 27,  5)  (  5, 24,  6)
  0 -0.5003E-04  0 -0.5077E-04  0  0.3902E-04  0 -0.2874E-04  0  0.3617E-04
   (  5, 31,  5)  (  5, 36,  1)  (  5, 39,  4)  (  5, 38,  1)  (  5, 40,  1)
  0 -0.2620E-04  0 -0.1358E-04  0  0.8338E-05  0 -0.9198E-05  0 -0.7769E-05
   (  5, 41,  2)  (  5, 35,  3)  (  5, 31,  3)  (  5, 40,  5)  (  5, 34,  6)
  0 -0.5899E-05  0 -0.7726E-05  0 -0.4920E-05  0 -0.3684E-05  0 -0.2990E-05
   (  5, 28,  5)  (  5, 34,  1)  (  5, 16,  1)  (  5, 22, 10)  (  5, 14,  1)
  0  0.1723E-05  0 -0.1659E-05  0 -0.1642E-05  0 -0.1499E-05  0  0.1403E-05
   (  5, 37,  4)  (  5, 29,  1)  (  5, 36,  1)  (  5, 34,  7)  (  5, 38,  8)
  0 -0.1049E-05  0 -0.8444E-06  1  0.5587E-06
   (  5, 37,  6)  (  5, 38,  1)  (  5, 38,  2)

 MAXIMUM RESIDUAL FOR EACH ITERATION (1 INDICATES THE FIRST INNER ITERATION):

    RESIDUAL       RESIDUAL       RESIDUAL       RESIDUAL       RESIDUAL    
   LAYER,ROW,COL  LAYER,ROW,COL  LAYER,ROW,COL  LAYER,ROW,COL  LAYER,ROW,COL
 ---------------------------------------------------------------------------
  1  0.1778E-03  0  0.1565E-03  0  0.1393E-03  0  0.1187E-03  0  0.8395E-04
   (  3,  3,  1)  (  3,  3,  1)  (  3,  3,  1)  (  3,  3,  1)  (  3,  3,  1)
  0  0.6307E-04  0  0.5158E-04  0  0.4353E-04  0 -0.3445E-04  0 -0.2685E-04
   (  3,  3,  1)  (  3,  3,  1)  (  3,  3,  1)  (  3,  4,  3)  (  3,  4,  3)
  0 -0.2060E-04  0  0.1774E-04  0  0.1668E-04  0  0.1431E-04  0  0.1116E-04
   (  3,  3,  9)  (  4, 44,  2)  (  4, 44,  2)  (  4, 44,  2)  (  4, 44,  2)
  0  0.9552E-05  0  0.7789E-05  0 -0.5972E-05  0 -0.4634E-05  0 -0.3428E-05
   (  4, 44,  2)  (  4, 44,  2)  (  3,  3,  9)  (  3,  3,  9)  (  3,  3,  8)
  0 -0.3082E-05  0 -0.2825E-05  0 -0.2296E-05  0 -0.2074E-05  0 -0.1682E-05
   (  3,  3,  7)  (  3,  3,  7)  (  3,  3,  7)  (  3,  3,  7)  (  3,  3,  7)
  0 -0.1375E-05  0 -0.1180E-05  0 -0.9129E-06  0 -0.8453E-06  0 -0.6289E-06
   (  3,  3,  2)  (  3,  3,  2)  (  3,  3,  2)  (  3,  3,  2)  (  3,  3,  2)
  1 -0.5865E-06  0 -0.5749E-06  0 -0.5247E-06  0 -0.4745E-06  0 -0.4251E-06
   (  3,  3,  2)  (  3,  3,  2)  (  3,  3,  2)  (  3,  3,  2)  (  3,  3,  2)
  0 -0.3519E-06  0 -0.3083E-06  0 -0.2440E-06  0 -0.2036E-06  0 -0.1582E-06
   (  3,  3,  2)  (  3,  3,  2)  (  3,  3,  2)  (  3,  3,  2)  (  3,  3,  2)
  0 -0.1245E-06  0 -0.9809E-07  0 -0.9235E-07  0 -0.6848E-07  0 -0.5232E-07
   (  3,  3,  2)  (  3,  3,  2)  (  3,  3,  2)  (  3,  3,  2)  (  3,  3,  2)
  0 -0.4312E-07  0  0.3464E-07  0  0.2475E-07  0  0.1877E-07  0  0.1390E-07
   (  3,  3,  2)  (  3,  3,  1)  (  3,  3,  1)  (  3,  3,  1)  (  3,  3,  1)
  0  0.1142E-07  0  0.1050E-07  0  0.9201E-08  0  0.7174E-08  0  0.5217E-08
   (  3,  3,  1)  (  3,  3,  1)  (  3,  3,  1)  (  3,  3,  1)  (  3,  3,  1)
  0  0.3814E-08  0  0.3121E-08  1  0.3084E-08
   (  3,  3,  1)  (  3,  3,  1)  (  3,  3,  1)



 OUTPUT CONTROL FOR STRESS PERIOD  115   TIME STEP    1
    SAVE HEAD FOR ALL LAYERS
    SAVE DRAWDOWN FOR ALL LAYERS
    SAVE BUDGET
    PRINT BUDGET
 UBDSV1 SAVING "         STORAGE" ON UNIT   9 AT TIME STEP  1, STRESS PERIOD 115
 UBDSV2 SAVING "   CONSTANT HEAD" ON UNIT   9 AT TIME STEP  1, STRESS PERIOD 115
 UBDSV1 SAVING "FLOW RIGHT FACE " ON UNIT   9 AT TIME STEP  1, STRESS PERIOD 115
 UBDSV1 SAVING "FLOW FRONT FACE " ON UNIT   9 AT TIME STEP  1, STRESS PERIOD 115
 UBDSV1 SAVING "FLOW LOWER FACE " ON UNIT   9 AT TIME STEP  1, STRESS PERIOD 115
 UBDSV3 SAVING "        RECHARGE" ON UNIT   9 AT TIME STEP  1, STRESS PERIOD 115

 HEAD WILL BE SAVED ON UNIT   37 AT END OF TIME STEP    1, STRESS PERIOD  115

 DRAWDOWN WILL BE SAVED ON UNIT   38 AT END OF TIME STEP    1, STRESS PERIOD  115
1
  VOLUMETRIC BUDGET FOR ENTIRE MODEL AT END OF TIME STEP    1, STRESS PERIOD 115
  ------------------------------------------------------------------------------

     CUMULATIVE VOLUMES      L**3       RATES FOR THIS TIME STEP      L**3/T
     ------------------                 ------------------------

           IN:                                      IN:
           ---                                      ---
             STORAGE =       17963.2129               STORAGE =       8.5304E-04
       CONSTANT HEAD =       29750.0625         CONSTANT HEAD =       1.8041E-03
            RECHARGE =        1403.0065              RECHARGE =       1.0213E-04

            TOTAL IN =       49116.2812              TOTAL IN =       2.7592E-03

          OUT:                                     OUT:
          ----                                     ----
             STORAGE =       14788.1543               STORAGE =       3.3409E-06
       CONSTANT HEAD =       34329.5352         CONSTANT HEAD =       2.7560E-03
            RECHARGE =           0.0000              RECHARGE =           0.0000

           TOTAL OUT =       49117.6875             TOTAL OUT =       2.7594E-03

            IN - OUT =          -1.4062              IN - OUT =      -1.3807E-07

 PERCENT DISCREPANCY =          -0.00     PERCENT DISCREPANCY =          -0.01






         TIME SUMMARY AT END OF TIME STEP    1 IN STRESS PERIOD  115
                    SECONDS     MINUTES      HOURS       DAYS        YEARS
                    -----------------------------------------------------------
   TIME STEP LENGTH  86400.      1440.0      24.000      1.0000     2.73785E-03
 STRESS PERIOD TIME  86400.      1440.0      24.000      1.0000     2.73785E-03
         TOTAL TIME 1.37376E+07 2.28960E+05  3816.0      159.00     0.43532    
1

 SOLVING FOR HEAD 
     3 CALLS TO PCG ROUTINE FOR TIME STEP   2 IN STRESS PERIOD  115
    55 TOTAL ITERATIONS

 MAXIMUM HEAD CHANGE FOR EACH ITERATION (1 INDICATES THE FIRST INNER ITERATION):

    HEAD CHANGE    HEAD CHANGE    HEAD CHANGE    HEAD CHANGE    HEAD CHANGE 
   LAYER,ROW,COL  LAYER,ROW,COL  LAYER,ROW,COL  LAYER,ROW,COL  LAYER,ROW,COL
 ---------------------------------------------------------------------------
  1  0.3181E-01  0 -0.2178E-01  0  0.1560E-01  0 -0.1163E-01  0  0.1448E-01
   (  5, 43,  5)  (  5, 36,  1)  (  5, 33,  2)  (  5, 31,  3)  (  5, 37,  1)
  0 -0.1312E-01  0  0.5537E-02  0 -0.9236E-02  0 -0.6235E-02  0  0.4288E-02
   (  5, 36,  2)  (  5, 25,  6)  (  5, 37,  1)  (  5, 39,  1)  (  5, 37,  1)
  0 -0.3650E-02  0  0.2364E-02  0  0.1911E-02  0 -0.1585E-02  0 -0.1822E-02
   (  5, 41,  2)  (  5, 39,  1)  (  5, 31,  2)  (  5, 37,  1)  (  5, 32,  9)
  0  0.1179E-02  0  0.1387E-02  0 -0.1073E-02  0  0.7228E-03  0 -0.5456E-03
   (  5, 34,  1)  (  5, 30,  8)  (  5, 35,  8)  (  5, 33,  8)  (  5, 36,  7)
  0  0.3311E-03  0 -0.3823E-03  0 -0.2756E-03  0 -0.2172E-03  0  0.2358E-03
   (  5, 34,  7)  (  5, 29,  2)  (  5, 41,  2)  (  5, 36,  1)  (  5, 39,  1)
  0 -0.1930E-03  0  0.1162E-03  0  0.9940E-04  0 -0.8399E-04  0  0.6962E-04
   (  5, 37,  1)  (  5, 39,  2)  (  5, 34,  4)  (  5, 36,  3)  (  5, 35,  1)
  1  0.3780E-04  0  0.4817E-04  0 -0.3511E-04  0  0.4605E-04  0 -0.4108E-04
   (  5, 30,  2)  (  5, 13,  2)  (  5, 34,  4)  (  5, 35,  3)  (  5, 38,  4)
  0  0.3613E-04  0 -0.2480E-04  0  0.2565E-04  0 -0.2692E-04  0  0.2926E-04
   (  5, 37,  1)  (  5, 35,  1)  (  5, 39,  4)  (  5, 37,  1)  (  5, 39,  1)
  0 -0.9784E-05  0 -0.1999E-04  0 -0.1015E-04  0  0.6419E-05  0 -0.6730E-05
   (  5, 31,  2)  (  5, 41,  2)  (  5, 32,  9)  (  5, 28, 12)  (  5, 29,  8)
  0 -0.5012E-05  0  0.4067E-05  0 -0.3612E-05  0  0.2704E-05  0 -0.2108E-05
   (  5, 33,  1)  (  5, 37,  1)  (  5, 34,  8)  (  5, 14,  1)  (  5, 34,  4)
  0  0.1688E-05  0 -0.1889E-05  0  0.1306E-05  0 -0.9361E-06  1  0.7480E-06
   (  5, 29,  2)  (  5, 28, 11)  (  5, 38,  1)  (  5, 35,  1)  (  5, 36,  2)

 MAXIMUM RESIDUAL FOR EACH ITERATION (1 INDICATES THE FIRST INNER ITERATION):

    RESIDUAL       RESIDUAL       RESIDUAL       RESIDUAL       RESIDUAL    
   LAYER,ROW,COL  LAYER,ROW,COL  LAYER,ROW,COL  LAYER,ROW,COL  LAYER,ROW,COL
 ---------------------------------------------------------------------------
  1  0.1303E-03  0  0.1091E-03  0  0.9353E-04  0  0.8529E-04  0  0.6856E-04
   (  3,  3,  1)  (  3,  3,  1)  (  3,  3,  1)  (  3,  3,  1)  (  3,  3,  1)
  0  0.5458E-04  0  0.4822E-04  0  0.3705E-04  0  0.2710E-04  0  0.2136E-04
   (  3,  3,  1)  (  3,  3,  1)  (  3,  3,  1)  (  3,  3,  1)  (  3,  3,  1)
  0  0.1772E-04  0  0.1507E-04  0  0.1419E-04  0  0.1193E-04  0  0.9502E-05
   (  4, 44,  2)  (  4, 44,  2)  (  4, 44,  2)  (  4, 44,  2)  (  4, 44,  2)
  0  0.8299E-05  0  0.6824E-05  0  0.5044E-05  0  0.3822E-05  0 -0.3021E-05
   (  4, 44,  2)  (  4, 44,  2)  (  4, 44,  2)  (  4, 44,  2)  (  3,  3,  7)
  0 -0.2748E-05  0 -0.2458E-05  0 -0.1971E-05  0 -0.1803E-05  0 -0.1406E-05
   (  3,  3,  7)  (  3,  3,  7)  (  3,  3,  7)  (  3,  3,  7)  (  3,  3,  2)
  0 -0.1082E-05  0 -0.9516E-06  0 -0.7651E-06  0 -0.6883E-06  0 -0.5254E-06
   (  3,  3,  2)  (  3,  3,  2)  (  3,  3,  2)  (  3,  3,  2)  (  3,  3,  2)
  1 -0.5180E-06  0 -0.4843E-06  0 -0.4515E-06  0 -0.3998E-06  0 -0.3445E-06
   (  3,  3,  2)  (  3,  3,  2)  (  3,  3,  2)  (  3,  3,  2)  (  3,  3,  2)
  0 -0.2954E-06  0 -0.2453E-06  0 -0.1975E-06  0 -0.1636E-06  0 -0.1230E-06
   (  3,  3,  2)  (  3,  3,  2)  (  3,  3,  2)  (  3,  3,  2)  (  3,  3,  2)
  0 -0.1148E-06  0 -0.8782E-07  0 -0.6524E-07  0 -0.4525E-07  0  0.3687E-07
   (  3,  3,  2)  (  3,  3,  2)  (  3,  3,  2)  (  3,  3,  2)  (  3,  3,  1)
  0  0.3359E-07  0  0.2558E-07  0  0.1881E-07  0  0.1416E-07  0  0.1170E-07
   (  3,  3,  1)  (  3,  3,  1)  (  3,  3,  1)  (  3,  3,  1)  (  3,  3,  1)
  0  0.1053E-07  0  0.8255E-08  0  0.6913E-08  0  0.5843E-08  1  0.5681E-08
   (  3,  3,  1)  (  3,  3,  1)  (  3,  3,  1)  (  3,  3,  1)  (  3,  3,  1)



 OUTPUT CONTROL FOR STRESS PERIOD  115   TIME STEP    2
    SAVE HEAD FOR ALL LAYERS
    SAVE DRAWDOWN FOR ALL LAYERS
    SAVE BUDGET
    PRINT BUDGET
 UBDSV1 SAVING "         STORAGE" ON UNIT   9 AT TIME STEP  2, STRESS PERIOD 115
 UBDSV2 SAVING "   CONSTANT HEAD" ON UNIT   9 AT TIME STEP  2, STRESS PERIOD 115
 UBDSV1 SAVING "FLOW RIGHT FACE " ON UNIT   9 AT TIME STEP  2, STRESS PERIOD 115
 UBDSV1 SAVING "FLOW FRONT FACE " ON UNIT   9 AT TIME STEP  2, STRESS PERIOD 115
 UBDSV1 SAVING "FLOW LOWER FACE " ON UNIT   9 AT TIME STEP  2, STRESS PERIOD 115
 UBDSV3 SAVING "        RECHARGE" ON UNIT   9 AT TIME STEP  2, STRESS PERIOD 115

 HEAD WILL BE SAVED ON UNIT   37 AT END OF TIME STEP    2, STRESS PERIOD  115

 DRAWDOWN WILL BE SAVED ON UNIT   38 AT END OF TIME STEP    2, STRESS PERIOD  115
1
  VOLUMETRIC BUDGET FOR ENTIRE MODEL AT END OF TIME STEP    2, STRESS PERIOD 115
  ------------------------------------------------------------------------------

     CUMULATIVE VOLUMES      L**3       RATES FOR THIS TIME STEP      L**3/T
     ------------------                 ------------------------

           IN:                                      IN:
           ---                                      ---
             STORAGE =       18005.2051               STORAGE =       4.8601E-04
       CONSTANT HEAD =       29895.6934         CONSTANT HEAD =       1.6855E-03
            RECHARGE =        1411.8304              RECHARGE =       1.0213E-04

            TOTAL IN =       49312.7305              TOTAL IN =       2.2737E-03

          OUT:                                     OUT:
          ----                                     ----
             STORAGE =       14789.6260               STORAGE =       1.7038E-05
       CONSTANT HEAD =       34524.5234         CONSTANT HEAD =       2.2568E-03
            RECHARGE =           0.0000              RECHARGE =           0.0000

           TOTAL OUT =       49314.1484             TOTAL OUT =       2.2739E-03

            IN - OUT =          -1.4180              IN - OUT =      -1.8463E-07

 PERCENT DISCREPANCY =          -0.00     PERCENT DISCREPANCY =          -0.01






         TIME SUMMARY AT END OF TIME STEP    2 IN STRESS PERIOD  115
                    SECONDS     MINUTES      HOURS       DAYS        YEARS
                    -----------------------------------------------------------
   TIME STEP LENGTH  86400.      1440.0      24.000      1.0000     2.73785E-03
 STRESS PERIOD TIME 1.72800E+05  2880.0      48.000      2.0000     5.47570E-03
         TOTAL TIME 1.38240E+07 2.30400E+05  3840.0      160.00     0.43806    
1

 SOLVING FOR HEAD 
     3 CALLS TO PCG ROUTINE FOR TIME STEP   3 IN STRESS PERIOD  115
    52 TOTAL ITERATIONS

 MAXIMUM HEAD CHANGE FOR EACH ITERATION (1 INDICATES THE FIRST INNER ITERATION):

    HEAD CHANGE    HEAD CHANGE    HEAD CHANGE    HEAD CHANGE    HEAD CHANGE 
   LAYER,ROW,COL  LAYER,ROW,COL  LAYER,ROW,COL  LAYER,ROW,COL  LAYER,ROW,COL
 ---------------------------------------------------------------------------
  1  0.3349E-01  0 -0.2197E-01  0  0.1313E-01  0 -0.1069E-01  0  0.1512E-01
   (  5, 43,  5)  (  5, 36,  2)  (  5, 32,  2)  (  5, 28,  3)  (  5, 37,  1)
  0 -0.1067E-01  0  0.6429E-02  0 -0.9864E-02  0 -0.6574E-02  0 -0.4324E-02
   (  5, 36,  2)  (  5, 40,  1)  (  5, 38,  1)  (  5, 38,  6)  (  5, 40,  1)
  0  0.4209E-02  0 -0.2320E-02  0  0.1394E-02  0 -0.2084E-02  0  0.1873E-02
   (  5, 38,  1)  (  5, 30,  4)  (  5, 29,  1)  (  5, 31,  8)  (  5, 37,  8)
  0 -0.8339E-03  0 -0.1433E-02  0  0.7265E-03  0 -0.6010E-03  0 -0.5209E-03
   (  5, 36,  4)  (  5, 34,  8)  (  5, 32,  9)  (  5, 30,  9)  (  5, 38,  4)
  0  0.3403E-03  0 -0.3283E-03  0  0.2248E-03  0 -0.3062E-03  0 -0.2033E-03
   (  5, 37,  1)  (  5, 35,  1)  (  5, 30,  2)  (  5, 34,  4)  (  5, 40,  5)
  0 -0.1495E-03  0 -0.1079E-03  0  0.1084E-03  0 -0.1039E-03  0  0.8206E-04
   (  5, 41,  1)  (  5, 35,  3)  (  5, 40,  2)  (  5, 38,  2)  (  5, 36,  1)
  1  0.4523E-04  0 -0.2767E-04  0  0.4476E-04  0 -0.4162E-04  0 -0.2616E-04
   (  5, 13,  1)  (  5, 28,  1)  (  5, 37,  1)  (  5, 39,  2)  (  5, 38,  4)
  0  0.4646E-04  0 -0.2501E-04  0  0.2726E-04  0 -0.1592E-04  0  0.2147E-04
   (  5, 37,  1)  (  5, 35,  2)  (  5, 40,  5)  (  5, 14,  1)  (  5, 40,  1)
  0 -0.1950E-04  0  0.6696E-05  0 -0.1120E-04  0  0.5797E-05  0 -0.6084E-05
   (  5, 41,  2)  (  5, 30,  2)  (  5, 32,  9)  (  5, 30,  9)  (  5, 29,  8)
  0 -0.4918E-05  0  0.2828E-05  0 -0.3365E-05  0  0.2497E-05  0 -0.1800E-05
   (  5, 33,  1)  (  5, 36,  1)  (  5, 39,  1)  (  5, 14,  1)  (  5, 31,  9)
  0  0.9381E-06  1 -0.9442E-06
   (  5, 29,  2)  (  5, 29,  2)

 MAXIMUM RESIDUAL FOR EACH ITERATION (1 INDICATES THE FIRST INNER ITERATION):

    RESIDUAL       RESIDUAL       RESIDUAL       RESIDUAL       RESIDUAL    
   LAYER,ROW,COL  LAYER,ROW,COL  LAYER,ROW,COL  LAYER,ROW,COL  LAYER,ROW,COL
 ---------------------------------------------------------------------------
  1  0.1176E-03  0  0.9931E-04  0  0.8975E-04  0  0.8188E-04  0  0.6694E-04
   (  3,  3,  1)  (  3,  3,  1)  (  3,  3,  1)  (  3,  3,  1)  (  3,  3,  1)
  0  0.5569E-04  0  0.4668E-04  0  0.3525E-04  0  0.2553E-04  0  0.1993E-04
   (  3,  3,  1)  (  3,  3,  1)  (  3,  3,  1)  (  3,  3,  1)  (  3,  3,  1)
  0  0.1607E-04  0  0.1376E-04  0  0.1319E-04  0  0.1090E-04  0  0.8761E-05
   (  4, 44,  2)  (  4, 44,  2)  (  4, 44,  2)  (  4, 44,  2)  (  4, 44,  2)
  0  0.8120E-05  0  0.6111E-05  0  0.4603E-05  0  0.3552E-05  0 -0.2886E-05
   (  4, 44,  2)  (  4, 44,  2)  (  4, 44,  2)  (  4, 44,  2)  (  3,  3,  7)
  0 -0.2640E-05  0 -0.2253E-05  0 -0.2131E-05  0 -0.1726E-05  0 -0.1308E-05
   (  3,  3,  7)  (  3,  3,  7)  (  3,  3,  7)  (  3,  3,  7)  (  3,  3,  2)
  0 -0.9933E-06  0 -0.9100E-06  0 -0.7780E-06  0 -0.6438E-06  0 -0.4905E-06
   (  3,  3,  2)  (  3,  3,  2)  (  3,  3,  2)  (  3,  3,  2)  (  3,  3,  2)
  1 -0.4634E-06  0 -0.4566E-06  0 -0.3977E-06  0 -0.3657E-06  0 -0.3315E-06
   (  3,  3,  2)  (  3,  3,  2)  (  3,  3,  2)  (  3,  3,  2)  (  3,  3,  2)
  0 -0.2821E-06  0 -0.2541E-06  0 -0.1912E-06  0 -0.1525E-06  0 -0.1165E-06
   (  3,  3,  2)  (  3,  3,  2)  (  3,  3,  2)  (  3,  3,  2)  (  3,  3,  2)
  0 -0.8445E-07  0 -0.7958E-07  0 -0.5955E-07  0  0.4180E-07  0  0.3267E-07
   (  3,  3,  2)  (  3,  3,  2)  (  3,  3,  2)  (  3,  3,  1)  (  3,  3,  1)
  0  0.2480E-07  0  0.2248E-07  0  0.1756E-07  0  0.1345E-07  0  0.1041E-07
   (  3,  3,  1)  (  3,  3,  1)  (  3,  3,  1)  (  3,  3,  1)  (  3,  3,  1)
  0  0.9926E-08  1  0.9852E-08
   (  3,  3,  1)  (  3,  3,  1)



 OUTPUT CONTROL FOR STRESS PERIOD  115   TIME STEP    3
    SAVE HEAD FOR ALL LAYERS
    SAVE DRAWDOWN FOR ALL LAYERS
    SAVE BUDGET
    PRINT BUDGET
 UBDSV1 SAVING "         STORAGE" ON UNIT   9 AT TIME STEP  3, STRESS PERIOD 115
 UBDSV2 SAVING "   CONSTANT HEAD" ON UNIT   9 AT TIME STEP  3, STRESS PERIOD 115
 UBDSV1 SAVING "FLOW RIGHT FACE " ON UNIT   9 AT TIME STEP  3, STRESS PERIOD 115
 UBDSV1 SAVING "FLOW FRONT FACE " ON UNIT   9 AT TIME STEP  3, STRESS PERIOD 115
 UBDSV1 SAVING "FLOW LOWER FACE " ON UNIT   9 AT TIME STEP  3, STRESS PERIOD 115
 UBDSV3 SAVING "        RECHARGE" ON UNIT   9 AT TIME STEP  3, STRESS PERIOD 115

 HEAD WILL BE SAVED ON UNIT   37 AT END OF TIME STEP    3, STRESS PERIOD  115

 DRAWDOWN WILL BE SAVED ON UNIT   38 AT END OF TIME STEP    3, STRESS PERIOD  115
1
  VOLUMETRIC BUDGET FOR ENTIRE MODEL AT END OF TIME STEP    3, STRESS PERIOD 115
  ------------------------------------------------------------------------------

     CUMULATIVE VOLUMES      L**3       RATES FOR THIS TIME STEP      L**3/T
     ------------------                 ------------------------

           IN:                                      IN:
           ---                                      ---
             STORAGE =       18037.7461               STORAGE =       3.7664E-04
       CONSTANT HEAD =       30021.2656         CONSTANT HEAD =       1.4534E-03
            RECHARGE =        1420.6544              RECHARGE =       1.0213E-04

            TOTAL IN =       49479.6680              TOTAL IN =       1.9322E-03

          OUT:                                     OUT:
          ----                                     ----
             STORAGE =       14791.9404               STORAGE =       2.6783E-05
       CONSTANT HEAD =       34689.1641         CONSTANT HEAD =       1.9056E-03
            RECHARGE =           0.0000              RECHARGE =           0.0000

           TOTAL OUT =       49481.1055             TOTAL OUT =       1.9324E-03

            IN - OUT =          -1.4375              IN - OUT =      -2.1106E-07

 PERCENT DISCREPANCY =          -0.00     PERCENT DISCREPANCY =          -0.01






         TIME SUMMARY AT END OF TIME STEP    3 IN STRESS PERIOD  115
                    SECONDS     MINUTES      HOURS       DAYS        YEARS
                    -----------------------------------------------------------
   TIME STEP LENGTH  86400.      1440.0      24.000      1.0000     2.73785E-03
 STRESS PERIOD TIME 2.59200E+05  4320.0      72.000      3.0000     8.21355E-03
         TOTAL TIME 1.39104E+07 2.31840E+05  3864.0      161.00     0.44079    
1
1
                            STRESS PERIOD NO.  116, LENGTH =   86400.00    
                            -----------------------------------------------

                              NUMBER OF TIME STEPS =     1

                               MULTIPLIER FOR DELT =     1.000

                            INITIAL TIME STEP SIZE =   86400.00    

 REUSING RECH FROM LAST STRESS PERIOD

 CHD NO.   LAYER   ROW   COL    START HEAD        END HEAD         IFACE           
 ----------------------------------------------------------------------------------
      1      4      3      1       110.0           110.0           0.000    
      2      5      3      1       110.0           110.0           0.000    
      3      4      3      2       110.0           110.0           0.000    
      4      5      3      2       110.0           110.0           0.000    
      5      4      3      3       110.0           110.0           0.000    
      6      5      3      3       110.0           110.0           0.000    
      7      4      3      4       110.0           110.0           0.000    
      8      5      3      4       110.0           110.0           0.000    
      9      4      3      5       110.0           110.0           0.000    
     10      5      3      5       110.0           110.0           0.000    
     11      4      3      6       110.0           110.0           0.000    
     12      5      3      6       110.0           110.0           0.000    
     13      4      3      7       110.0           110.0           0.000    
     14      5      3      7       110.0           110.0           0.000    
     15      4      3      8       110.0           110.0           0.000    
     16      5      3      8       110.0           110.0           0.000    
     17      4      2      8       110.0           110.0           0.000    
     18      5      2      8       110.0           110.0           0.000    
     19      4      2      9       110.0           110.0           0.000    
     20      5      2      9       110.0           110.0           0.000    
     21      4      2     10       110.0           110.0           0.000    
     22      5      2     10       110.0           110.0           0.000    
     23      4      2     11       110.0           110.0           0.000    
     24      5      2     11       110.0           110.0           0.000    
     25      4      2     12       110.0           110.0           0.000    
     26      5      2     12       110.0           110.0           0.000    
     27      4      2     13       110.0           110.0           0.000    
     28      5      2     13       110.0           110.0           0.000    
     29      4      2     14       110.0           110.0           0.000    
     30      5      2     14       110.0           110.0           0.000    
     31      4      2     15       110.0           110.0           0.000    
     32      5      2     15       110.0           110.0           0.000    
     33      4      2     16       110.0           110.0           0.000    
     34      5      2     16       110.0           110.0           0.000    
     35      4      2     17       110.0           110.0           0.000    
     36      5      2     17       110.0           110.0           0.000    
     37      4      2     18       110.0           110.0           0.000    
     38      5      2     18       110.0           110.0           0.000    
     39      4      2     19       110.0           110.0           0.000    
     40      5      2     19       110.0           110.0           0.000    
     41      4      2     20       110.0           110.0           0.000    
     42      5      2     20       110.0           110.0           0.000    
     43      4      2     21       110.0           110.0           0.000    
     44      5      2     21       110.0           110.0           0.000    
     45      4      2     22       110.0           110.0           0.000    
     46      5      2     22       110.0           110.0           0.000    
     47      4      2     23       110.0           110.0           0.000    
     48      5      2     23       110.0           110.0           0.000    
     49      4      2     24       110.0           110.0           0.000    
     50      5      2     24       110.0           110.0           0.000    
     51      4      2     25       110.0           110.0           0.000    
     52      5      2     25       110.0           110.0           0.000    
     53      4      2     26       110.0           110.0           0.000    
     54      5      2     26       110.0           110.0           0.000    
     55      4      1     26       110.0           110.0           0.000    
     56      5      1     26       110.0           110.0           0.000    
     57      4      1     27       110.0           110.0           0.000    
     58      5      1     27       110.0           110.0           0.000    
     59      4      1     28       110.0           110.0           0.000    
     60      5      1     28       110.0           110.0           0.000    
     61      4      1     29       110.0           110.0           0.000    
     62      5      1     29       110.0           110.0           0.000    
     63      4      1     30       110.0           110.0           0.000    
     64      5      1     30       110.0           110.0           0.000    
     65      4      1     31       110.0           110.0           0.000    
     66      5      1     31       110.0           110.0           0.000    
     67      4      1     32       110.0           110.0           0.000    
     68      5      1     32       110.0           110.0           0.000    
     69      4      1     33       110.0           110.0           0.000    
     70      5      1     33       110.0           110.0           0.000    
     71      4      1     34       110.0           110.0           0.000    
     72      5      1     34       110.0           110.0           0.000    
     73      4      1     35       110.0           110.0           0.000    
     74      5      1     35       110.0           110.0           0.000    
     75      4     36     35       109.8           109.8           0.000    
     76      5     36     35       109.8           109.8           0.000    
     77      4     35     34       109.8           109.8           0.000    
     78      5     35     34       109.8           109.8           0.000    
     79      4     36     34       109.8           109.8           0.000    
     80      5     36     34       109.8           109.8           0.000    
     81      4     36     33       109.8           109.8           0.000    
     82      5     36     33       109.8           109.8           0.000    
     83      4     36     32       109.8           109.8           0.000    
     84      5     36     32       109.8           109.8           0.000    
     85      4     37     32       109.8           109.8           0.000    
     86      5     37     32       109.8           109.8           0.000    
     87      4     37     31       109.8           109.8           0.000    
     88      5     37     31       109.8           109.8           0.000    
     89      4     38     31       109.8           109.8           0.000    
     90      5     38     31       109.8           109.8           0.000    
     91      4     38     30       109.8           109.8           0.000    
     92      5     38     30       109.8           109.8           0.000    
     93      4     39     30       109.8           109.8           0.000    
     94      5     39     30       109.8           109.8           0.000    
     95      4     39     29       109.8           109.8           0.000    
     96      5     39     29       109.8           109.8           0.000    
     97      4     40     29       109.8           109.8           0.000    
     98      5     40     29       109.8           109.8           0.000    
     99      4     40     28       109.8           109.8           0.000    
    100      5     40     28       109.8           109.8           0.000    
    101      4     40     27       109.8           109.8           0.000    
    102      5     40     27       109.8           109.8           0.000    
    103      4     41     27       109.8           109.8           0.000    
    104      5     41     27       109.8           109.8           0.000    
    105      4     41     26       109.8           109.8           0.000    
    106      5     41     26       109.8           109.8           0.000    
    107      4     41     25       109.8           109.8           0.000    
    108      5     41     25       109.8           109.8           0.000    
    109      4     41     24       109.8           109.8           0.000    
    110      5     41     24       109.8           109.8           0.000    
    111      4     41     23       109.8           109.8           0.000    
    112      5     41     23       109.8           109.8           0.000    
    113      4     41     22       109.8           109.8           0.000    
    114      5     41     22       109.8           109.8           0.000    
    115      4     42     22       109.8           109.8           0.000    
    116      5     42     22       109.8           109.8           0.000    
    117      4     42     21       109.8           109.8           0.000    
    118      5     42     21       109.8           109.8           0.000    
    119      4     42     20       109.8           109.8           0.000    
    120      5     42     20       109.8           109.8           0.000    
    121      4     42     19       109.8           109.8           0.000    
    122      5     42     19       109.8           109.8           0.000    
    123      4     43     18       109.8           109.8           0.000    
    124      5     43     18       109.8           109.8           0.000    
    125      4     42     18       109.8           109.8           0.000    
    126      5     42     18       109.8           109.8           0.000    
    127      4     42     17       109.8           109.8           0.000    
    128      5     42     17       109.8           109.8           0.000    
    129      4     42     16       109.8           109.8           0.000    
    130      5     42     16       109.8           109.8           0.000    
    131      4     42     15       109.8           109.8           0.000    
    132      5     42     15       109.8           109.8           0.000    
    133      4     43     15       109.8           109.8           0.000    
    134      5     43     15       109.8           109.8           0.000    
    135      4     43     14       109.8           109.8           0.000    
    136      5     43     14       109.8           109.8           0.000    
    137      4     43     13       109.8           109.8           0.000    
    138      5     43     13       109.8           109.8           0.000    
    139      4     43     12       109.8           109.8           0.000    
    140      5     43     12       109.8           109.8           0.000    
    141      4     43     11       109.8           109.8           0.000    
    142      5     43     11       109.8           109.8           0.000    
    143      4     43     10       109.8           109.8           0.000    
    144      5     43     10       109.8           109.8           0.000    
    145      4     44     10       109.8           109.8           0.000    
    146      5     44     10       109.8           109.8           0.000    
    147      4     44      9       109.8           109.8           0.000    
    148      5     44      9       109.8           109.8           0.000    
    149      4     44      8       109.8           109.8           0.000    
    150      5     44      8       109.8           109.8           0.000    
    151      4     44      7       109.8           109.8           0.000    
    152      5     44      7       109.8           109.8           0.000    
    153      4     44      6       109.8           109.8           0.000    
    154      5     44      6       109.8           109.8           0.000    
    155      4     44      5       109.8           109.8           0.000    
    156      5     44      5       109.8           109.8           0.000    
    157      4     44      4       109.8           109.8           0.000    
    158      5     44      4       109.8           109.8           0.000    
    159      4     44      3       109.8           109.8           0.000    
    160      5     44      3       109.8           109.8           0.000    
    161      4     45      3       109.8           109.8           0.000    
    162      5     45      3       109.8           109.8           0.000    
    163      4     45      2       109.8           109.8           0.000    
    164      5     45      2       109.8           109.8           0.000    
    165      4     45      1       109.8           109.8           0.000    
    166      5     45      1       109.8           109.8           0.000    


    166 TIME-VARIANT SPECIFIED-HEAD CELLS

 SOLVING FOR HEAD 


     3 CALLS TO PCG ROUTINE FOR TIME STEP   1 IN STRESS PERIOD  116
    45 TOTAL ITERATIONS

 MAXIMUM HEAD CHANGE FOR EACH ITERATION (1 INDICATES THE FIRST INNER ITERATION):

    HEAD CHANGE    HEAD CHANGE    HEAD CHANGE    HEAD CHANGE    HEAD CHANGE 
   LAYER,ROW,COL  LAYER,ROW,COL  LAYER,ROW,COL  LAYER,ROW,COL  LAYER,ROW,COL
 ---------------------------------------------------------------------------
  1 -0.2195E-02  0  0.1168E-02  0 -0.1212E-02  0  0.1124E-02  0 -0.1269E-02
   (  5, 12,  2)  (  5, 25,  3)  (  5, 29,  3)  (  5, 32,  2)  (  5, 34,  2)
  0  0.1190E-02  0 -0.1243E-02  0  0.9395E-03  0 -0.8979E-03  0  0.5943E-03
   (  5, 36,  2)  (  5, 37,  2)  (  5, 39,  2)  (  5, 39,  2)  (  5, 40,  2)
  0 -0.4919E-03  0 -0.3151E-03  0  0.2283E-03  0 -0.2658E-03  0 -0.2379E-03
   (  5, 40,  1)  (  5, 31,  6)  (  5, 31,  4)  (  5, 32,  1)  (  5, 31,  9)
  0 -0.1964E-03  0  0.1432E-03  0 -0.1405E-03  0  0.8726E-04  0 -0.6253E-04
   (  5, 38,  4)  (  5, 33,  2)  (  5, 33,  1)  (  5, 34,  1)  (  5, 37,  2)
  0  0.4908E-04  0 -0.6049E-04  0  0.3488E-04  0  0.3240E-04  0 -0.2408E-04
   (  5, 40,  6)  (  5, 36,  7)  (  5, 30,  2)  (  5, 36,  8)  (  5, 34,  9)
  0  0.1766E-04  0 -0.1652E-04  0  0.1250E-04  0 -0.1087E-04  0  0.7819E-05
   (  5, 32,  7)  (  5, 38,  1)  (  5, 38,  2)  (  5, 33,  2)  (  5, 36,  6)
  1 -0.6093E-05  0  0.4408E-05  0 -0.6585E-05  0  0.4780E-05  0 -0.4014E-05
   (  5, 37,  7)  (  5, 35,  4)  (  5, 33,  1)  (  5, 28,  2)  (  5, 32,  5)
  0  0.3685E-05  0 -0.3472E-05  0  0.3109E-05  0 -0.2769E-05  0  0.2740E-05
   (  5, 25,  4)  (  5, 39,  2)  (  5, 16,  1)  (  5, 37,  1)  (  5, 40,  1)
  0 -0.1828E-05  0 -0.1608E-05  0  0.1398E-05  0 -0.8606E-06  1  0.6695E-06
   (  5, 40,  2)  (  5, 36,  7)  (  5, 35,  6)  (  5, 31,  3)  (  5, 30,  2)

 MAXIMUM RESIDUAL FOR EACH ITERATION (1 INDICATES THE FIRST INNER ITERATION):

    RESIDUAL       RESIDUAL       RESIDUAL       RESIDUAL       RESIDUAL    
   LAYER,ROW,COL  LAYER,ROW,COL  LAYER,ROW,COL  LAYER,ROW,COL  LAYER,ROW,COL
 ---------------------------------------------------------------------------
  1  0.1627E-05  0  0.1894E-05  0  0.2066E-05  0  0.2165E-05  0  0.2181E-05
   (  5,  6,  8)  (  5,  6, 35)  (  5,  6, 35)  (  5,  6, 35)  (  5,  5, 35)
  0 -0.2459E-05  0 -0.2417E-05  0 -0.1983E-05  0 -0.2371E-05  0 -0.2246E-05
   (  5, 34, 35)  (  5, 34, 35)  (  4, 33, 35)  (  4, 34, 35)  (  4, 34, 35)
  0 -0.1639E-05  0  0.8391E-06  0  0.7809E-06  0  0.7139E-06  0  0.5892E-06
   (  4, 34, 35)  (  5,  2, 35)  (  5,  2, 35)  (  5, 34, 35)  (  5, 34, 35)
  0  0.4544E-06  0  0.3853E-06  0  0.3214E-06  0  0.2596E-06  0  0.2439E-06
   (  5, 34, 35)  (  5,  2, 35)  (  4, 34, 35)  (  4, 44,  1)  (  4, 44,  1)
  0  0.1960E-06  0  0.1703E-06  0  0.1613E-06  0  0.1196E-06  0  0.8670E-07
   (  4, 44,  1)  (  4, 44,  1)  (  4, 44,  1)  (  4, 44,  1)  (  4, 44,  1)
  0 -0.7591E-07  0 -0.6501E-07  0 -0.5974E-07  0 -0.5598E-07  0 -0.4614E-07
   (  4, 44,  2)  (  4, 44,  2)  (  4, 44,  2)  (  4, 44,  2)  (  4, 44,  2)
  1 -0.4145E-07  0 -0.3784E-07  0 -0.3401E-07  0 -0.3164E-07  0 -0.2973E-07
   (  4, 44,  2)  (  4, 44,  2)  (  4, 44,  2)  (  4, 44,  2)  (  4, 44,  2)
  0 -0.2516E-07  0 -0.2031E-07  0 -0.1482E-07  0 -0.1046E-07  0  0.8429E-08
   (  4, 44,  2)  (  4, 44,  2)  (  4, 44,  2)  (  4, 44,  2)  (  4,  2, 35)
  0  0.6595E-08  0  0.4959E-08  0  0.3770E-08  0  0.3363E-08  1  0.3351E-08
   (  4,  2, 35)  (  4,  2, 35)  (  4,  2, 35)  (  4,  2, 35)  (  4,  2, 35)



 OUTPUT CONTROL FOR STRESS PERIOD  116   TIME STEP    1
    SAVE HEAD FOR ALL LAYERS
    SAVE DRAWDOWN FOR ALL LAYERS
    SAVE BUDGET
    PRINT BUDGET
 UBDSV1 SAVING "         STORAGE" ON UNIT   9 AT TIME STEP  1, STRESS PERIOD 116
 UBDSV2 SAVING "   CONSTANT HEAD" ON UNIT   9 AT TIME STEP  1, STRESS PERIOD 116
 UBDSV1 SAVING "FLOW RIGHT FACE " ON UNIT   9 AT TIME STEP  1, STRESS PERIOD 116
 UBDSV1 SAVING "FLOW FRONT FACE " ON UNIT   9 AT TIME STEP  1, STRESS PERIOD 116
 UBDSV1 SAVING "FLOW LOWER FACE " ON UNIT   9 AT TIME STEP  1, STRESS PERIOD 116
 UBDSV3 SAVING "        RECHARGE" ON UNIT   9 AT TIME STEP  1, STRESS PERIOD 116

 HEAD WILL BE SAVED ON UNIT   37 AT END OF TIME STEP    1, STRESS PERIOD  116

 DRAWDOWN WILL BE SAVED ON UNIT   38 AT END OF TIME STEP    1, STRESS PERIOD  116
1
  VOLUMETRIC BUDGET FOR ENTIRE MODEL AT END OF TIME STEP    1, STRESS PERIOD 116
  ------------------------------------------------------------------------------

     CUMULATIVE VOLUMES      L**3       RATES FOR THIS TIME STEP      L**3/T
     ------------------                 ------------------------

           IN:                                      IN:
           ---                                      ---
             STORAGE =       18046.4434               STORAGE =       1.0066E-04
       CONSTANT HEAD =       30164.2305         CONSTANT HEAD =       1.6547E-03
            RECHARGE =        1429.4784              RECHARGE =       1.0213E-04

            TOTAL IN =       49640.1484              TOTAL IN =       1.8575E-03

          OUT:                                     OUT:
          ----                                     ----
             STORAGE =       14791.9609               STORAGE =       2.3865E-07
       CONSTANT HEAD =       34849.6406         CONSTANT HEAD =       1.8574E-03
            RECHARGE =           0.0000              RECHARGE =           0.0000

           TOTAL OUT =       49641.6016             TOTAL OUT =       1.8576E-03

            IN - OUT =          -1.4531              IN - OUT =      -1.3830E-07

 PERCENT DISCREPANCY =          -0.00     PERCENT DISCREPANCY =          -0.01






         TIME SUMMARY AT END OF TIME STEP    1 IN STRESS PERIOD  116
                    SECONDS     MINUTES      HOURS       DAYS        YEARS
                    -----------------------------------------------------------
   TIME STEP LENGTH  86400.      1440.0      24.000      1.0000     2.73785E-03
 STRESS PERIOD TIME  86400.      1440.0      24.000      1.0000     2.73785E-03
         TOTAL TIME 1.39968E+07 2.33280E+05  3888.0      162.00     0.44353    
1
1
                            STRESS PERIOD NO.  117, LENGTH =   86400.00    
                            -----------------------------------------------

                              NUMBER OF TIME STEPS =     1

                               MULTIPLIER FOR DELT =     1.000

                            INITIAL TIME STEP SIZE =   86400.00    

 REUSING RECH FROM LAST STRESS PERIOD

 CHD NO.   LAYER   ROW   COL    START HEAD        END HEAD         IFACE           
 ----------------------------------------------------------------------------------
      1      4      3      1       110.0           110.0           0.000    
      2      5      3      1       110.0           110.0           0.000    
      3      4      3      2       110.0           110.0           0.000    
      4      5      3      2       110.0           110.0           0.000    
      5      4      3      3       110.0           110.0           0.000    
      6      5      3      3       110.0           110.0           0.000    
      7      4      3      4       110.0           110.0           0.000    
      8      5      3      4       110.0           110.0           0.000    
      9      4      3      5       110.0           110.0           0.000    
     10      5      3      5       110.0           110.0           0.000    
     11      4      3      6       110.0           110.0           0.000    
     12      5      3      6       110.0           110.0           0.000    
     13      4      3      7       110.0           110.0           0.000    
     14      5      3      7       110.0           110.0           0.000    
     15      4      3      8       110.0           110.0           0.000    
     16      5      3      8       110.0           110.0           0.000    
     17      4      2      8       110.0           110.0           0.000    
     18      5      2      8       110.0           110.0           0.000    
     19      4      2      9       110.0           110.0           0.000    
     20      5      2      9       110.0           110.0           0.000    
     21      4      2     10       110.0           110.0           0.000    
     22      5      2     10       110.0           110.0           0.000    
     23      4      2     11       110.0           110.0           0.000    
     24      5      2     11       110.0           110.0           0.000    
     25      4      2     12       110.0           110.0           0.000    
     26      5      2     12       110.0           110.0           0.000    
     27      4      2     13       110.0           110.0           0.000    
     28      5      2     13       110.0           110.0           0.000    
     29      4      2     14       110.0           110.0           0.000    
     30      5      2     14       110.0           110.0           0.000    
     31      4      2     15       110.0           110.0           0.000    
     32      5      2     15       110.0           110.0           0.000    
     33      4      2     16       110.0           110.0           0.000    
     34      5      2     16       110.0           110.0           0.000    
     35      4      2     17       110.0           110.0           0.000    
     36      5      2     17       110.0           110.0           0.000    
     37      4      2     18       110.0           110.0           0.000    
     38      5      2     18       110.0           110.0           0.000    
     39      4      2     19       110.0           110.0           0.000    
     40      5      2     19       110.0           110.0           0.000    
     41      4      2     20       110.0           110.0           0.000    
     42      5      2     20       110.0           110.0           0.000    
     43      4      2     21       110.0           110.0           0.000    
     44      5      2     21       110.0           110.0           0.000    
     45      4      2     22       110.0           110.0           0.000    
     46      5      2     22       110.0           110.0           0.000    
     47      4      2     23       110.0           110.0           0.000    
     48      5      2     23       110.0           110.0           0.000    
     49      4      2     24       110.0           110.0           0.000    
     50      5      2     24       110.0           110.0           0.000    
     51      4      2     25       110.0           110.0           0.000    
     52      5      2     25       110.0           110.0           0.000    
     53      4      2     26       110.0           110.0           0.000    
     54      5      2     26       110.0           110.0           0.000    
     55      4      1     26       110.0           110.0           0.000    
     56      5      1     26       110.0           110.0           0.000    
     57      4      1     27       110.0           110.0           0.000    
     58      5      1     27       110.0           110.0           0.000    
     59      4      1     28       110.0           110.0           0.000    
     60      5      1     28       110.0           110.0           0.000    
     61      4      1     29       110.0           110.0           0.000    
     62      5      1     29       110.0           110.0           0.000    
     63      4      1     30       110.0           110.0           0.000    
     64      5      1     30       110.0           110.0           0.000    
     65      4      1     31       110.0           110.0           0.000    
     66      5      1     31       110.0           110.0           0.000    
     67      4      1     32       110.0           110.0           0.000    
     68      5      1     32       110.0           110.0           0.000    
     69      4      1     33       110.0           110.0           0.000    
     70      5      1     33       110.0           110.0           0.000    
     71      4      1     34       110.0           110.0           0.000    
     72      5      1     34       110.0           110.0           0.000    
     73      4      1     35       110.0           110.0           0.000    
     74      5      1     35       110.0           110.0           0.000    
     75      4     36     35       109.8           109.9           0.000    
     76      5     36     35       109.8           109.9           0.000    
     77      4     35     34       109.8           109.9           0.000    
     78      5     35     34       109.8           109.9           0.000    
     79      4     36     34       109.8           109.9           0.000    
     80      5     36     34       109.8           109.9           0.000    
     81      4     36     33       109.8           109.9           0.000    
     82      5     36     33       109.8           109.9           0.000    
     83      4     36     32       109.8           109.9           0.000    
     84      5     36     32       109.8           109.9           0.000    
     85      4     37     32       109.8           109.9           0.000    
     86      5     37     32       109.8           109.9           0.000    
     87      4     37     31       109.8           109.9           0.000    
     88      5     37     31       109.8           109.9           0.000    
     89      4     38     31       109.8           109.9           0.000    
     90      5     38     31       109.8           109.9           0.000    
     91      4     38     30       109.8           109.9           0.000    
     92      5     38     30       109.8           109.9           0.000    
     93      4     39     30       109.8           109.9           0.000    
     94      5     39     30       109.8           109.9           0.000    
     95      4     39     29       109.8           109.9           0.000    
     96      5     39     29       109.8           109.9           0.000    
     97      4     40     29       109.8           109.9           0.000    
     98      5     40     29       109.8           109.9           0.000    
     99      4     40     28       109.8           109.9           0.000    
    100      5     40     28       109.8           109.9           0.000    
    101      4     40     27       109.8           109.9           0.000    
    102      5     40     27       109.8           109.9           0.000    
    103      4     41     27       109.8           109.9           0.000    
    104      5     41     27       109.8           109.9           0.000    
    105      4     41     26       109.8           109.9           0.000    
    106      5     41     26       109.8           109.9           0.000    
    107      4     41     25       109.8           109.9           0.000    
    108      5     41     25       109.8           109.9           0.000    
    109      4     41     24       109.8           109.9           0.000    
    110      5     41     24       109.8           109.9           0.000    
    111      4     41     23       109.8           109.9           0.000    
    112      5     41     23       109.8           109.9           0.000    
    113      4     41     22       109.8           109.9           0.000    
    114      5     41     22       109.8           109.9           0.000    
    115      4     42     22       109.8           109.9           0.000    
    116      5     42     22       109.8           109.9           0.000    
    117      4     42     21       109.8           109.9           0.000    
    118      5     42     21       109.8           109.9           0.000    
    119      4     42     20       109.8           109.9           0.000    
    120      5     42     20       109.8           109.9           0.000    
    121      4     42     19       109.8           109.9           0.000    
    122      5     42     19       109.8           109.9           0.000    
    123      4     43     18       109.8           109.9           0.000    
    124      5     43     18       109.8           109.9           0.000    
    125      4     42     18       109.8           109.9           0.000    
    126      5     42     18       109.8           109.9           0.000    
    127      4     42     17       109.8           109.9           0.000    
    128      5     42     17       109.8           109.9           0.000    
    129      4     42     16       109.8           109.9           0.000    
    130      5     42     16       109.8           109.9           0.000    
    131      4     42     15       109.8           109.9           0.000    
    132      5     42     15       109.8           109.9           0.000    
    133      4     43     15       109.8           109.9           0.000    
    134      5     43     15       109.8           109.9           0.000    
    135      4     43     14       109.8           109.9           0.000    
    136      5     43     14       109.8           109.9           0.000    
    137      4     43     13       109.8           109.9           0.000    
    138      5     43     13       109.8           109.9           0.000    
    139      4     43     12       109.8           109.9           0.000    
    140      5     43     12       109.8           109.9           0.000    
    141      4     43     11       109.8           109.9           0.000    
    142      5     43     11       109.8           109.9           0.000    
    143      4     43     10       109.8           109.9           0.000    
    144      5     43     10       109.8           109.9           0.000    
    145      4     44     10       109.8           109.9           0.000    
    146      5     44     10       109.8           109.9           0.000    
    147      4     44      9       109.8           109.9           0.000    
    148      5     44      9       109.8           109.9           0.000    
    149      4     44      8       109.8           109.9           0.000    
    150      5     44      8       109.8           109.9           0.000    
    151      4     44      7       109.8           109.9           0.000    
    152      5     44      7       109.8           109.9           0.000    
    153      4     44      6       109.8           109.9           0.000    
    154      5     44      6       109.8           109.9           0.000    
    155      4     44      5       109.8           109.9           0.000    
    156      5     44      5       109.8           109.9           0.000    
    157      4     44      4       109.8           109.9           0.000    
    158      5     44      4       109.8           109.9           0.000    
    159      4     44      3       109.8           109.9           0.000    
    160      5     44      3       109.8           109.9           0.000    
    161      4     45      3       109.8           109.9           0.000    
    162      5     45      3       109.8           109.9           0.000    
    163      4     45      2       109.8           109.9           0.000    
    164      5     45      2       109.8           109.9           0.000    
    165      4     45      1       109.8           109.9           0.000    
    166      5     45      1       109.8           109.9           0.000    


    166 TIME-VARIANT SPECIFIED-HEAD CELLS

 SOLVING FOR HEAD 


     3 CALLS TO PCG ROUTINE FOR TIME STEP   1 IN STRESS PERIOD  117
    61 TOTAL ITERATIONS

 MAXIMUM HEAD CHANGE FOR EACH ITERATION (1 INDICATES THE FIRST INNER ITERATION):

    HEAD CHANGE    HEAD CHANGE    HEAD CHANGE    HEAD CHANGE    HEAD CHANGE 
   LAYER,ROW,COL  LAYER,ROW,COL  LAYER,ROW,COL  LAYER,ROW,COL  LAYER,ROW,COL
 ---------------------------------------------------------------------------
  1  0.2414      0 -0.1345      0  0.7708E-01  0 -0.6683E-01  0  0.8835E-01
   (  5, 43,  5)  (  5, 35,  1)  (  5, 30,  2)  (  5, 41,  2)  (  5, 37,  1)
  0  0.4878E-01  0  0.5725E-01  0 -0.6206E-01  0 -0.3534E-01  0 -0.2743E-01
   (  5, 39,  1)  (  5, 40,  1)  (  5, 37,  1)  (  5, 37,  6)  (  5, 40,  1)
  0 -0.2322E-01  0 -0.1355E-01  0  0.1252E-01  0 -0.1475E-01  0  0.1309E-01
   (  5, 35,  9)  (  5, 27,  2)  (  5, 33,  9)  (  5, 31,  9)  (  5, 36,  8)
  0 -0.7820E-02  0 -0.5028E-02  0 -0.4955E-02  0 -0.4247E-02  0 -0.3617E-02
   (  5, 34,  9)  (  5, 36,  4)  (  5, 15,  1)  (  5, 30, 10)  (  5, 38,  4)
  0  0.2575E-02  0  0.2294E-02  0 -0.1754E-02  0  0.2359E-02  0 -0.1784E-02
   (  5, 37,  1)  (  5, 33,  7)  (  5, 34,  1)  (  5, 13,  1)  (  5, 13,  1)
  0 -0.1299E-02  0  0.8372E-03  0 -0.6183E-03  0  0.3577E-03  0  0.3797E-03
   (  5, 37,  1)  (  5, 40,  2)  (  5, 38,  1)  (  5, 35,  1)  (  5, 12,  1)
  1  0.2648E-03  0 -0.1577E-03  0  0.2503E-03  0  0.2427E-03  0 -0.1545E-03
   (  5, 32,  5)  (  5, 32,  3)  (  5, 28,  4)  (  5, 35,  3)  (  5, 40,  2)
  0 -0.1216E-03  0  0.1456E-03  0 -0.1533E-03  0  0.1273E-03  0 -0.8129E-04
   (  5, 25,  7)  (  5, 37,  2)  (  5, 37,  1)  (  5, 39,  1)  (  5, 37,  1)
  0  0.7567E-04  0  0.4150E-04  0 -0.4692E-04  0  0.3748E-04  0  0.2544E-04
   (  5, 14,  1)  (  5, 33,  2)  (  5, 30,  3)  (  5, 40,  2)  (  5, 35,  9)
  0 -0.2474E-04  0  0.1690E-04  0 -0.2344E-04  0 -0.1544E-04  0  0.1047E-04
   (  5, 39,  1)  (  5, 32,  2)  (  5, 37,  4)  (  5, 39,  1)  (  5, 41,  2)
  0  0.6742E-05  0 -0.8363E-05  0 -0.5850E-05  0  0.7588E-05  0 -0.3821E-05
   (  5, 32,  1)  (  5, 32,  5)  (  5, 36,  1)  (  5, 38,  1)  (  5, 40,  6)
  0 -0.3254E-05  0  0.2372E-05  0 -0.2349E-05  0 -0.2132E-05  0  0.7520E-06
   (  5, 40,  2)  (  5, 41,  4)  (  5, 37,  1)  (  5, 35,  6)  (  5, 31,  2)
  1 -0.7108E-06
   (  5, 29,  1)

 MAXIMUM RESIDUAL FOR EACH ITERATION (1 INDICATES THE FIRST INNER ITERATION):

    RESIDUAL       RESIDUAL       RESIDUAL       RESIDUAL       RESIDUAL    
   LAYER,ROW,COL  LAYER,ROW,COL  LAYER,ROW,COL  LAYER,ROW,COL  LAYER,ROW,COL
 ---------------------------------------------------------------------------
  1 -0.1148E-02  0 -0.8658E-03  0 -0.7262E-03  0 -0.6486E-03  0 -0.5451E-03
   (  4, 44,  2)  (  4, 44,  2)  (  4, 44,  2)  (  4, 35, 35)  (  4, 35, 35)
  0 -0.4612E-03  0 -0.3893E-03  0 -0.3094E-03  0 -0.2469E-03  0 -0.1876E-03
   (  3, 40, 27)  (  3, 40, 27)  (  3, 40, 27)  (  3, 40, 27)  (  3, 40, 27)
  0  0.1476E-03  0  0.1276E-03  0  0.1151E-03  0  0.9142E-04  0  0.7051E-04
   (  4, 43,  4)  (  4, 43,  4)  (  4, 43,  4)  (  3, 35, 35)  (  3, 35, 35)
  0  0.5587E-04  0  0.5178E-04  0  0.4201E-04  0  0.3435E-04  0  0.2686E-04
   (  4, 43,  4)  (  4, 43,  4)  (  4, 44,  2)  (  4, 44,  2)  (  4, 34, 35)
  0  0.2456E-04  0  0.2192E-04  0  0.2044E-04  0  0.1620E-04  0  0.1295E-04
   (  4, 34, 35)  (  4, 34, 35)  (  4, 34, 35)  (  4, 34, 35)  (  4, 34, 35)
  0  0.1045E-04  0  0.9293E-05  0  0.7066E-05  0  0.6663E-05  0  0.4705E-05
   (  4, 34, 35)  (  4, 34, 35)  (  4, 34, 35)  (  4, 34, 35)  (  4, 34, 35)
  1  0.4424E-05  0  0.4350E-05  0  0.3801E-05  0  0.3505E-05  0  0.2904E-05
   (  4, 34, 35)  (  4, 34, 35)  (  4, 34, 35)  (  4, 34, 35)  (  4, 34, 35)
  0  0.2423E-05  0  0.2109E-05  0  0.1640E-05  0  0.1251E-05  0  0.9926E-06
   (  4, 34, 35)  (  4, 34, 35)  (  4, 34, 35)  (  4, 34, 35)  (  4, 34, 35)
  0  0.7507E-06  0  0.6470E-06  0  0.5345E-06  0 -0.4229E-06  0 -0.3294E-06
   (  4, 34, 35)  (  4, 34, 35)  (  4, 34, 35)  (  4, 35, 35)  (  4, 35, 35)
  0 -0.2524E-06  0 -0.2181E-06  0 -0.1825E-06  0 -0.1332E-06  0 -0.9703E-07
   (  4, 35, 35)  (  4, 35, 35)  (  4, 35, 35)  (  4, 35, 35)  (  4, 35, 35)
  0 -0.8584E-07  0 -0.6976E-07  0 -0.6133E-07  0 -0.4552E-07  0 -0.3350E-07
   (  4, 35, 35)  (  4, 35, 35)  (  4, 35, 35)  (  4, 35, 35)  (  4, 35, 35)
  0 -0.2529E-07  0 -0.2018E-07  0 -0.1609E-07  0 -0.1229E-07  0 -0.1176E-07
   (  4, 35, 35)  (  4, 35, 35)  (  4, 35, 35)  (  3, 36, 35)  (  3, 36, 35)
  1 -0.1172E-07
   (  3, 36, 35)



 OUTPUT CONTROL FOR STRESS PERIOD  117   TIME STEP    1
    SAVE HEAD FOR ALL LAYERS
    SAVE DRAWDOWN FOR ALL LAYERS
    SAVE BUDGET
    PRINT BUDGET
 UBDSV1 SAVING "         STORAGE" ON UNIT   9 AT TIME STEP  1, STRESS PERIOD 117
 UBDSV2 SAVING "   CONSTANT HEAD" ON UNIT   9 AT TIME STEP  1, STRESS PERIOD 117
 UBDSV1 SAVING "FLOW RIGHT FACE " ON UNIT   9 AT TIME STEP  1, STRESS PERIOD 117
 UBDSV1 SAVING "FLOW FRONT FACE " ON UNIT   9 AT TIME STEP  1, STRESS PERIOD 117
 UBDSV1 SAVING "FLOW LOWER FACE " ON UNIT   9 AT TIME STEP  1, STRESS PERIOD 117
 UBDSV3 SAVING "        RECHARGE" ON UNIT   9 AT TIME STEP  1, STRESS PERIOD 117

 HEAD WILL BE SAVED ON UNIT   37 AT END OF TIME STEP    1, STRESS PERIOD  117

 DRAWDOWN WILL BE SAVED ON UNIT   38 AT END OF TIME STEP    1, STRESS PERIOD  117
1
  VOLUMETRIC BUDGET FOR ENTIRE MODEL AT END OF TIME STEP    1, STRESS PERIOD 117
  ------------------------------------------------------------------------------

     CUMULATIVE VOLUMES      L**3       RATES FOR THIS TIME STEP      L**3/T
     ------------------                 ------------------------

           IN:                                      IN:
           ---                                      ---
             STORAGE =       18046.4434               STORAGE =           0.0000
       CONSTANT HEAD =       30336.0801         CONSTANT HEAD =       1.9890E-03
            RECHARGE =        1438.3024              RECHARGE =       1.0213E-04

            TOTAL IN =       49820.8242              TOTAL IN =       2.0911E-03

          OUT:                                     OUT:
          ----                                     ----
             STORAGE =       14938.3701               STORAGE =       1.6946E-03
       CONSTANT HEAD =       34883.8945         CONSTANT HEAD =       3.9645E-04
            RECHARGE =           0.0000              RECHARGE =           0.0000

           TOTAL OUT =       49822.2656             TOTAL OUT =       2.0910E-03

            IN - OUT =          -1.4414              IN - OUT =       1.2689E-07

 PERCENT DISCREPANCY =          -0.00     PERCENT DISCREPANCY =           0.01






         TIME SUMMARY AT END OF TIME STEP    1 IN STRESS PERIOD  117
                    SECONDS     MINUTES      HOURS       DAYS        YEARS
                    -----------------------------------------------------------
   TIME STEP LENGTH  86400.      1440.0      24.000      1.0000     2.73785E-03
 STRESS PERIOD TIME  86400.      1440.0      24.000      1.0000     2.73785E-03
         TOTAL TIME 1.40832E+07 2.34720E+05  3912.0      163.00     0.44627    
1
1
                            STRESS PERIOD NO.  118, LENGTH =   86400.00    
                            -----------------------------------------------

                              NUMBER OF TIME STEPS =     1

                               MULTIPLIER FOR DELT =     1.000

                            INITIAL TIME STEP SIZE =   86400.00    

 REUSING RECH FROM LAST STRESS PERIOD

 CHD NO.   LAYER   ROW   COL    START HEAD        END HEAD         IFACE           
 ----------------------------------------------------------------------------------
      1      4      3      1       110.0           110.0           0.000    
      2      5      3      1       110.0           110.0           0.000    
      3      4      3      2       110.0           110.0           0.000    
      4      5      3      2       110.0           110.0           0.000    
      5      4      3      3       110.0           110.0           0.000    
      6      5      3      3       110.0           110.0           0.000    
      7      4      3      4       110.0           110.0           0.000    
      8      5      3      4       110.0           110.0           0.000    
      9      4      3      5       110.0           110.0           0.000    
     10      5      3      5       110.0           110.0           0.000    
     11      4      3      6       110.0           110.0           0.000    
     12      5      3      6       110.0           110.0           0.000    
     13      4      3      7       110.0           110.0           0.000    
     14      5      3      7       110.0           110.0           0.000    
     15      4      3      8       110.0           110.0           0.000    
     16      5      3      8       110.0           110.0           0.000    
     17      4      2      8       110.0           110.0           0.000    
     18      5      2      8       110.0           110.0           0.000    
     19      4      2      9       110.0           110.0           0.000    
     20      5      2      9       110.0           110.0           0.000    
     21      4      2     10       110.0           110.0           0.000    
     22      5      2     10       110.0           110.0           0.000    
     23      4      2     11       110.0           110.0           0.000    
     24      5      2     11       110.0           110.0           0.000    
     25      4      2     12       110.0           110.0           0.000    
     26      5      2     12       110.0           110.0           0.000    
     27      4      2     13       110.0           110.0           0.000    
     28      5      2     13       110.0           110.0           0.000    
     29      4      2     14       110.0           110.0           0.000    
     30      5      2     14       110.0           110.0           0.000    
     31      4      2     15       110.0           110.0           0.000    
     32      5      2     15       110.0           110.0           0.000    
     33      4      2     16       110.0           110.0           0.000    
     34      5      2     16       110.0           110.0           0.000    
     35      4      2     17       110.0           110.0           0.000    
     36      5      2     17       110.0           110.0           0.000    
     37      4      2     18       110.0           110.0           0.000    
     38      5      2     18       110.0           110.0           0.000    
     39      4      2     19       110.0           110.0           0.000    
     40      5      2     19       110.0           110.0           0.000    
     41      4      2     20       110.0           110.0           0.000    
     42      5      2     20       110.0           110.0           0.000    
     43      4      2     21       110.0           110.0           0.000    
     44      5      2     21       110.0           110.0           0.000    
     45      4      2     22       110.0           110.0           0.000    
     46      5      2     22       110.0           110.0           0.000    
     47      4      2     23       110.0           110.0           0.000    
     48      5      2     23       110.0           110.0           0.000    
     49      4      2     24       110.0           110.0           0.000    
     50      5      2     24       110.0           110.0           0.000    
     51      4      2     25       110.0           110.0           0.000    
     52      5      2     25       110.0           110.0           0.000    
     53      4      2     26       110.0           110.0           0.000    
     54      5      2     26       110.0           110.0           0.000    
     55      4      1     26       110.0           110.0           0.000    
     56      5      1     26       110.0           110.0           0.000    
     57      4      1     27       110.0           110.0           0.000    
     58      5      1     27       110.0           110.0           0.000    
     59      4      1     28       110.0           110.0           0.000    
     60      5      1     28       110.0           110.0           0.000    
     61      4      1     29       110.0           110.0           0.000    
     62      5      1     29       110.0           110.0           0.000    
     63      4      1     30       110.0           110.0           0.000    
     64      5      1     30       110.0           110.0           0.000    
     65      4      1     31       110.0           110.0           0.000    
     66      5      1     31       110.0           110.0           0.000    
     67      4      1     32       110.0           110.0           0.000    
     68      5      1     32       110.0           110.0           0.000    
     69      4      1     33       110.0           110.0           0.000    
     70      5      1     33       110.0           110.0           0.000    
     71      4      1     34       110.0           110.0           0.000    
     72      5      1     34       110.0           110.0           0.000    
     73      4      1     35       110.0           110.0           0.000    
     74      5      1     35       110.0           110.0           0.000    
     75      4     36     35       109.9           109.9           0.000    
     76      5     36     35       109.9           109.9           0.000    
     77      4     35     34       109.9           109.9           0.000    
     78      5     35     34       109.9           109.9           0.000    
     79      4     36     34       109.9           109.9           0.000    
     80      5     36     34       109.9           109.9           0.000    
     81      4     36     33       109.9           109.9           0.000    
     82      5     36     33       109.9           109.9           0.000    
     83      4     36     32       109.9           109.9           0.000    
     84      5     36     32       109.9           109.9           0.000    
     85      4     37     32       109.9           109.9           0.000    
     86      5     37     32       109.9           109.9           0.000    
     87      4     37     31       109.9           109.9           0.000    
     88      5     37     31       109.9           109.9           0.000    
     89      4     38     31       109.9           109.9           0.000    
     90      5     38     31       109.9           109.9           0.000    
     91      4     38     30       109.9           109.9           0.000    
     92      5     38     30       109.9           109.9           0.000    
     93      4     39     30       109.9           109.9           0.000    
     94      5     39     30       109.9           109.9           0.000    
     95      4     39     29       109.9           109.9           0.000    
     96      5     39     29       109.9           109.9           0.000    
     97      4     40     29       109.9           109.9           0.000    
     98      5     40     29       109.9           109.9           0.000    
     99      4     40     28       109.9           109.9           0.000    
    100      5     40     28       109.9           109.9           0.000    
    101      4     40     27       109.9           109.9           0.000    
    102      5     40     27       109.9           109.9           0.000    
    103      4     41     27       109.9           109.9           0.000    
    104      5     41     27       109.9           109.9           0.000    
    105      4     41     26       109.9           109.9           0.000    
    106      5     41     26       109.9           109.9           0.000    
    107      4     41     25       109.9           109.9           0.000    
    108      5     41     25       109.9           109.9           0.000    
    109      4     41     24       109.9           109.9           0.000    
    110      5     41     24       109.9           109.9           0.000    
    111      4     41     23       109.9           109.9           0.000    
    112      5     41     23       109.9           109.9           0.000    
    113      4     41     22       109.9           109.9           0.000    
    114      5     41     22       109.9           109.9           0.000    
    115      4     42     22       109.9           109.9           0.000    
    116      5     42     22       109.9           109.9           0.000    
    117      4     42     21       109.9           109.9           0.000    
    118      5     42     21       109.9           109.9           0.000    
    119      4     42     20       109.9           109.9           0.000    
    120      5     42     20       109.9           109.9           0.000    
    121      4     42     19       109.9           109.9           0.000    
    122      5     42     19       109.9           109.9           0.000    
    123      4     43     18       109.9           109.9           0.000    
    124      5     43     18       109.9           109.9           0.000    
    125      4     42     18       109.9           109.9           0.000    
    126      5     42     18       109.9           109.9           0.000    
    127      4     42     17       109.9           109.9           0.000    
    128      5     42     17       109.9           109.9           0.000    
    129      4     42     16       109.9           109.9           0.000    
    130      5     42     16       109.9           109.9           0.000    
    131      4     42     15       109.9           109.9           0.000    
    132      5     42     15       109.9           109.9           0.000    
    133      4     43     15       109.9           109.9           0.000    
    134      5     43     15       109.9           109.9           0.000    
    135      4     43     14       109.9           109.9           0.000    
    136      5     43     14       109.9           109.9           0.000    
    137      4     43     13       109.9           109.9           0.000    
    138      5     43     13       109.9           109.9           0.000    
    139      4     43     12       109.9           109.9           0.000    
    140      5     43     12       109.9           109.9           0.000    
    141      4     43     11       109.9           109.9           0.000    
    142      5     43     11       109.9           109.9           0.000    
    143      4     43     10       109.9           109.9           0.000    
    144      5     43     10       109.9           109.9           0.000    
    145      4     44     10       109.9           109.9           0.000    
    146      5     44     10       109.9           109.9           0.000    
    147      4     44      9       109.9           109.9           0.000    
    148      5     44      9       109.9           109.9           0.000    
    149      4     44      8       109.9           109.9           0.000    
    150      5     44      8       109.9           109.9           0.000    
    151      4     44      7       109.9           109.9           0.000    
    152      5     44      7       109.9           109.9           0.000    
    153      4     44      6       109.9           109.9           0.000    
    154      5     44      6       109.9           109.9           0.000    
    155      4     44      5       109.9           109.9           0.000    
    156      5     44      5       109.9           109.9           0.000    
    157      4     44      4       109.9           109.9           0.000    
    158      5     44      4       109.9           109.9           0.000    
    159      4     44      3       109.9           109.9           0.000    
    160      5     44      3       109.9           109.9           0.000    
    161      4     45      3       109.9           109.9           0.000    
    162      5     45      3       109.9           109.9           0.000    
    163      4     45      2       109.9           109.9           0.000    
    164      5     45      2       109.9           109.9           0.000    
    165      4     45      1       109.9           109.9           0.000    
    166      5     45      1       109.9           109.9           0.000    


    166 TIME-VARIANT SPECIFIED-HEAD CELLS

 SOLVING FOR HEAD 


     3 CALLS TO PCG ROUTINE FOR TIME STEP   1 IN STRESS PERIOD  118
    53 TOTAL ITERATIONS

 MAXIMUM HEAD CHANGE FOR EACH ITERATION (1 INDICATES THE FIRST INNER ITERATION):

    HEAD CHANGE    HEAD CHANGE    HEAD CHANGE    HEAD CHANGE    HEAD CHANGE 
   LAYER,ROW,COL  LAYER,ROW,COL  LAYER,ROW,COL  LAYER,ROW,COL  LAYER,ROW,COL
 ---------------------------------------------------------------------------
  1  0.1934E-01  0 -0.1112E-01  0 -0.1533E-01  0  0.1546E-01  0  0.8619E-02
   (  5, 43,  6)  (  5, 31,  1)  (  5, 39,  2)  (  5, 36,  2)  (  5, 29,  6)
  0  0.8850E-02  0 -0.5743E-02  0 -0.5002E-02  0 -0.3677E-02  0 -0.2881E-02
   (  5, 34,  7)  (  5, 37,  1)  (  5, 26,  8)  (  5, 39,  1)  (  5, 34, 11)
  0  0.2364E-02  0  0.3035E-02  0 -0.1867E-02  0  0.1271E-02  0 -0.1064E-02
   (  5, 38,  1)  (  5, 32, 10)  (  5, 29,  7)  (  5, 29,  1)  (  5, 21,  1)
  0  0.8685E-03  0 -0.7115E-03  0 -0.7421E-03  0  0.5302E-03  0 -0.4888E-03
   (  5, 32,  1)  (  5, 35,  3)  (  5, 15,  1)  (  5, 14,  1)  (  5, 38,  4)
  0  0.2979E-03  0 -0.2888E-03  0  0.2316E-03  0 -0.1135E-03  0 -0.1628E-03
   (  5, 37,  1)  (  5, 27,  9)  (  5, 14,  2)  (  5, 32,  3)  (  5, 13,  1)
  0  0.1610E-03  0  0.9823E-04  0 -0.6624E-04  0 -0.5756E-04  0  0.5220E-04
   (  5, 12,  1)  (  5, 39,  2)  (  5, 40,  4)  (  5, 32,  2)  (  5, 35,  1)
  1 -0.4192E-04  0  0.3097E-04  0  0.3393E-04  0 -0.2911E-04  0  0.2653E-04
   (  5, 36,  2)  (  5, 33,  3)  (  5, 29,  4)  (  5, 32,  3)  (  5, 24,  7)
  0 -0.2693E-04  0  0.2490E-04  0 -0.2376E-04  0  0.1417E-04  0  0.1375E-04
   (  5, 38,  4)  (  5, 37,  1)  (  5, 40,  1)  (  5, 39,  1)  (  5, 33,  1)
  0  0.1063E-04  0 -0.9314E-05  0  0.4567E-05  0 -0.6018E-05  0  0.4713E-05
   (  5, 39,  1)  (  5, 41,  2)  (  5, 29,  1)  (  5, 32,  9)  (  5, 31,  9)
  0  0.3742E-05  0 -0.3024E-05  0 -0.2867E-05  0  0.2451E-05  0 -0.1284E-05
   (  5, 37,  5)  (  5, 33,  1)  (  5, 14,  1)  (  5, 13,  1)  (  5, 15,  1)
  0  0.1090E-05  0 -0.8702E-06  1  0.6800E-06
   (  5, 32,  1)  (  5, 33,  5)  (  5, 32,  4)

 MAXIMUM RESIDUAL FOR EACH ITERATION (1 INDICATES THE FIRST INNER ITERATION):

    RESIDUAL       RESIDUAL       RESIDUAL       RESIDUAL       RESIDUAL    
   LAYER,ROW,COL  LAYER,ROW,COL  LAYER,ROW,COL  LAYER,ROW,COL  LAYER,ROW,COL
 ---------------------------------------------------------------------------
  1 -0.9028E-04  0 -0.8158E-04  0 -0.7070E-04  0 -0.5815E-04  0 -0.4874E-04
   (  3,  3,  1)  (  3,  3,  1)  (  3,  3,  1)  (  3,  3,  1)  (  3,  3,  1)
  0 -0.3991E-04  0  0.3445E-04  0  0.3167E-04  0  0.2497E-04  0  0.1863E-04
   (  3,  3,  1)  (  4, 34, 35)  (  4, 34, 35)  (  4, 34, 35)  (  4, 34, 35)
  0  0.1545E-04  0  0.1282E-04  0  0.1003E-04  0  0.9173E-05  0  0.7389E-05
   (  3, 35, 35)  (  3, 35, 35)  (  3, 35, 35)  (  4, 43,  4)  (  4, 43,  4)
  0  0.6101E-05  0  0.5717E-05  0  0.4600E-05  0  0.3814E-05  0  0.3219E-05
   (  3, 41, 23)  (  3, 41, 23)  (  3, 41, 23)  (  4, 44,  2)  (  4, 44,  2)
  0  0.2890E-05  0  0.2337E-05  0  0.1839E-05  0  0.1750E-05  0  0.1166E-05
   (  4, 44,  2)  (  4, 44,  2)  (  4, 44,  2)  (  4, 44,  2)  (  4, 44,  2)
  0  0.8297E-06  0  0.5991E-06  0  0.4560E-06  0  0.3242E-06  0  0.2925E-06
   (  4, 44,  2)  (  4, 44,  2)  (  4, 44,  2)  (  3,  3,  2)  (  3,  3,  2)
  1 -0.2820E-06  0 -0.2703E-06  0  0.2463E-06  0  0.2326E-06  0  0.2115E-06
   (  4, 35, 35)  (  4, 35, 35)  (  3,  3,  2)  (  3,  3,  2)  (  3,  3,  2)
  0  0.1717E-06  0  0.1552E-06  0  0.1144E-06  0  0.9202E-07  0 -0.7077E-07
   (  3,  3,  2)  (  3,  3,  2)  (  3,  3,  2)  (  3,  3,  2)  (  3,  3,  1)
  0 -0.5444E-07  0 -0.4323E-07  0 -0.4048E-07  0 -0.3165E-07  0 -0.2498E-07
   (  3,  3,  1)  (  3,  3,  1)  (  3,  3,  1)  (  3,  3,  1)  (  3,  3,  1)
  0 -0.2100E-07  0 -0.1877E-07  0 -0.1321E-07  0 -0.9512E-08  0 -0.6926E-08
   (  3,  3,  1)  (  3,  3,  1)  (  3,  3,  1)  (  3,  3,  1)  (  3,  3,  1)
  0 -0.5979E-08  0 -0.5270E-08  1 -0.5218E-08
   (  3,  3,  1)  (  3,  3,  1)  (  3,  3,  1)



 OUTPUT CONTROL FOR STRESS PERIOD  118   TIME STEP    1
    SAVE HEAD FOR ALL LAYERS
    SAVE DRAWDOWN FOR ALL LAYERS
    SAVE BUDGET
    PRINT BUDGET
 UBDSV1 SAVING "         STORAGE" ON UNIT   9 AT TIME STEP  1, STRESS PERIOD 118
 UBDSV2 SAVING "   CONSTANT HEAD" ON UNIT   9 AT TIME STEP  1, STRESS PERIOD 118
 UBDSV1 SAVING "FLOW RIGHT FACE " ON UNIT   9 AT TIME STEP  1, STRESS PERIOD 118
 UBDSV1 SAVING "FLOW FRONT FACE " ON UNIT   9 AT TIME STEP  1, STRESS PERIOD 118
 UBDSV1 SAVING "FLOW LOWER FACE " ON UNIT   9 AT TIME STEP  1, STRESS PERIOD 118
 UBDSV3 SAVING "        RECHARGE" ON UNIT   9 AT TIME STEP  1, STRESS PERIOD 118

 HEAD WILL BE SAVED ON UNIT   37 AT END OF TIME STEP    1, STRESS PERIOD  118

 DRAWDOWN WILL BE SAVED ON UNIT   38 AT END OF TIME STEP    1, STRESS PERIOD  118
1
  VOLUMETRIC BUDGET FOR ENTIRE MODEL AT END OF TIME STEP    1, STRESS PERIOD 118
  ------------------------------------------------------------------------------

     CUMULATIVE VOLUMES      L**3       RATES FOR THIS TIME STEP      L**3/T
     ------------------                 ------------------------

           IN:                                      IN:
           ---                                      ---
             STORAGE =       18046.4434               STORAGE =           0.0000
       CONSTANT HEAD =       30473.5117         CONSTANT HEAD =       1.5907E-03
            RECHARGE =        1447.1263              RECHARGE =       1.0213E-04

            TOTAL IN =       49967.0781              TOTAL IN =       1.6928E-03

          OUT:                                     OUT:
          ----                                     ----
             STORAGE =       14996.9971               STORAGE =       6.7855E-04
       CONSTANT HEAD =       34971.5312         CONSTANT HEAD =       1.0143E-03
            RECHARGE =           0.0000              RECHARGE =           0.0000

           TOTAL OUT =       49968.5273             TOTAL OUT =       1.6929E-03

            IN - OUT =          -1.4492              IN - OUT =      -7.8697E-08

 PERCENT DISCREPANCY =          -0.00     PERCENT DISCREPANCY =          -0.00






         TIME SUMMARY AT END OF TIME STEP    1 IN STRESS PERIOD  118
                    SECONDS     MINUTES      HOURS       DAYS        YEARS
                    -----------------------------------------------------------
   TIME STEP LENGTH  86400.      1440.0      24.000      1.0000     2.73785E-03
 STRESS PERIOD TIME  86400.      1440.0      24.000      1.0000     2.73785E-03
         TOTAL TIME 1.41696E+07 2.36160E+05  3936.0      164.00     0.44901    
1
1
                            STRESS PERIOD NO.  119, LENGTH =   86400.00    
                            -----------------------------------------------

                              NUMBER OF TIME STEPS =     1

                               MULTIPLIER FOR DELT =     1.000

                            INITIAL TIME STEP SIZE =   86400.00    

 REUSING RECH FROM LAST STRESS PERIOD

 CHD NO.   LAYER   ROW   COL    START HEAD        END HEAD         IFACE           
 ----------------------------------------------------------------------------------
      1      4      3      1       110.0           110.0           0.000    
      2      5      3      1       110.0           110.0           0.000    
      3      4      3      2       110.0           110.0           0.000    
      4      5      3      2       110.0           110.0           0.000    
      5      4      3      3       110.0           110.0           0.000    
      6      5      3      3       110.0           110.0           0.000    
      7      4      3      4       110.0           110.0           0.000    
      8      5      3      4       110.0           110.0           0.000    
      9      4      3      5       110.0           110.0           0.000    
     10      5      3      5       110.0           110.0           0.000    
     11      4      3      6       110.0           110.0           0.000    
     12      5      3      6       110.0           110.0           0.000    
     13      4      3      7       110.0           110.0           0.000    
     14      5      3      7       110.0           110.0           0.000    
     15      4      3      8       110.0           110.0           0.000    
     16      5      3      8       110.0           110.0           0.000    
     17      4      2      8       110.0           110.0           0.000    
     18      5      2      8       110.0           110.0           0.000    
     19      4      2      9       110.0           110.0           0.000    
     20      5      2      9       110.0           110.0           0.000    
     21      4      2     10       110.0           110.0           0.000    
     22      5      2     10       110.0           110.0           0.000    
     23      4      2     11       110.0           110.0           0.000    
     24      5      2     11       110.0           110.0           0.000    
     25      4      2     12       110.0           110.0           0.000    
     26      5      2     12       110.0           110.0           0.000    
     27      4      2     13       110.0           110.0           0.000    
     28      5      2     13       110.0           110.0           0.000    
     29      4      2     14       110.0           110.0           0.000    
     30      5      2     14       110.0           110.0           0.000    
     31      4      2     15       110.0           110.0           0.000    
     32      5      2     15       110.0           110.0           0.000    
     33      4      2     16       110.0           110.0           0.000    
     34      5      2     16       110.0           110.0           0.000    
     35      4      2     17       110.0           110.0           0.000    
     36      5      2     17       110.0           110.0           0.000    
     37      4      2     18       110.0           110.0           0.000    
     38      5      2     18       110.0           110.0           0.000    
     39      4      2     19       110.0           110.0           0.000    
     40      5      2     19       110.0           110.0           0.000    
     41      4      2     20       110.0           110.0           0.000    
     42      5      2     20       110.0           110.0           0.000    
     43      4      2     21       110.0           110.0           0.000    
     44      5      2     21       110.0           110.0           0.000    
     45      4      2     22       110.0           110.0           0.000    
     46      5      2     22       110.0           110.0           0.000    
     47      4      2     23       110.0           110.0           0.000    
     48      5      2     23       110.0           110.0           0.000    
     49      4      2     24       110.0           110.0           0.000    
     50      5      2     24       110.0           110.0           0.000    
     51      4      2     25       110.0           110.0           0.000    
     52      5      2     25       110.0           110.0           0.000    
     53      4      2     26       110.0           110.0           0.000    
     54      5      2     26       110.0           110.0           0.000    
     55      4      1     26       110.0           110.0           0.000    
     56      5      1     26       110.0           110.0           0.000    
     57      4      1     27       110.0           110.0           0.000    
     58      5      1     27       110.0           110.0           0.000    
     59      4      1     28       110.0           110.0           0.000    
     60      5      1     28       110.0           110.0           0.000    
     61      4      1     29       110.0           110.0           0.000    
     62      5      1     29       110.0           110.0           0.000    
     63      4      1     30       110.0           110.0           0.000    
     64      5      1     30       110.0           110.0           0.000    
     65      4      1     31       110.0           110.0           0.000    
     66      5      1     31       110.0           110.0           0.000    
     67      4      1     32       110.0           110.0           0.000    
     68      5      1     32       110.0           110.0           0.000    
     69      4      1     33       110.0           110.0           0.000    
     70      5      1     33       110.0           110.0           0.000    
     71      4      1     34       110.0           110.0           0.000    
     72      5      1     34       110.0           110.0           0.000    
     73      4      1     35       110.0           110.0           0.000    
     74      5      1     35       110.0           110.0           0.000    
     75      4     36     35       109.9           109.9           0.000    
     76      5     36     35       109.9           109.9           0.000    
     77      4     35     34       109.9           109.9           0.000    
     78      5     35     34       109.9           109.9           0.000    
     79      4     36     34       109.9           109.9           0.000    
     80      5     36     34       109.9           109.9           0.000    
     81      4     36     33       109.9           109.9           0.000    
     82      5     36     33       109.9           109.9           0.000    
     83      4     36     32       109.9           109.9           0.000    
     84      5     36     32       109.9           109.9           0.000    
     85      4     37     32       109.9           109.9           0.000    
     86      5     37     32       109.9           109.9           0.000    
     87      4     37     31       109.9           109.9           0.000    
     88      5     37     31       109.9           109.9           0.000    
     89      4     38     31       109.9           109.9           0.000    
     90      5     38     31       109.9           109.9           0.000    
     91      4     38     30       109.9           109.9           0.000    
     92      5     38     30       109.9           109.9           0.000    
     93      4     39     30       109.9           109.9           0.000    
     94      5     39     30       109.9           109.9           0.000    
     95      4     39     29       109.9           109.9           0.000    
     96      5     39     29       109.9           109.9           0.000    
     97      4     40     29       109.9           109.9           0.000    
     98      5     40     29       109.9           109.9           0.000    
     99      4     40     28       109.9           109.9           0.000    
    100      5     40     28       109.9           109.9           0.000    
    101      4     40     27       109.9           109.9           0.000    
    102      5     40     27       109.9           109.9           0.000    
    103      4     41     27       109.9           109.9           0.000    
    104      5     41     27       109.9           109.9           0.000    
    105      4     41     26       109.9           109.9           0.000    
    106      5     41     26       109.9           109.9           0.000    
    107      4     41     25       109.9           109.9           0.000    
    108      5     41     25       109.9           109.9           0.000    
    109      4     41     24       109.9           109.9           0.000    
    110      5     41     24       109.9           109.9           0.000    
    111      4     41     23       109.9           109.9           0.000    
    112      5     41     23       109.9           109.9           0.000    
    113      4     41     22       109.9           109.9           0.000    
    114      5     41     22       109.9           109.9           0.000    
    115      4     42     22       109.9           109.9           0.000    
    116      5     42     22       109.9           109.9           0.000    
    117      4     42     21       109.9           109.9           0.000    
    118      5     42     21       109.9           109.9           0.000    
    119      4     42     20       109.9           109.9           0.000    
    120      5     42     20       109.9           109.9           0.000    
    121      4     42     19       109.9           109.9           0.000    
    122      5     42     19       109.9           109.9           0.000    
    123      4     43     18       109.9           109.9           0.000    
    124      5     43     18       109.9           109.9           0.000    
    125      4     42     18       109.9           109.9           0.000    
    126      5     42     18       109.9           109.9           0.000    
    127      4     42     17       109.9           109.9           0.000    
    128      5     42     17       109.9           109.9           0.000    
    129      4     42     16       109.9           109.9           0.000    
    130      5     42     16       109.9           109.9           0.000    
    131      4     42     15       109.9           109.9           0.000    
    132      5     42     15       109.9           109.9           0.000    
    133      4     43     15       109.9           109.9           0.000    
    134      5     43     15       109.9           109.9           0.000    
    135      4     43     14       109.9           109.9           0.000    
    136      5     43     14       109.9           109.9           0.000    
    137      4     43     13       109.9           109.9           0.000    
    138      5     43     13       109.9           109.9           0.000    
    139      4     43     12       109.9           109.9           0.000    
    140      5     43     12       109.9           109.9           0.000    
    141      4     43     11       109.9           109.9           0.000    
    142      5     43     11       109.9           109.9           0.000    
    143      4     43     10       109.9           109.9           0.000    
    144      5     43     10       109.9           109.9           0.000    
    145      4     44     10       109.9           109.9           0.000    
    146      5     44     10       109.9           109.9           0.000    
    147      4     44      9       109.9           109.9           0.000    
    148      5     44      9       109.9           109.9           0.000    
    149      4     44      8       109.9           109.9           0.000    
    150      5     44      8       109.9           109.9           0.000    
    151      4     44      7       109.9           109.9           0.000    
    152      5     44      7       109.9           109.9           0.000    
    153      4     44      6       109.9           109.9           0.000    
    154      5     44      6       109.9           109.9           0.000    
    155      4     44      5       109.9           109.9           0.000    
    156      5     44      5       109.9           109.9           0.000    
    157      4     44      4       109.9           109.9           0.000    
    158      5     44      4       109.9           109.9           0.000    
    159      4     44      3       109.9           109.9           0.000    
    160      5     44      3       109.9           109.9           0.000    
    161      4     45      3       109.9           109.9           0.000    
    162      5     45      3       109.9           109.9           0.000    
    163      4     45      2       109.9           109.9           0.000    
    164      5     45      2       109.9           109.9           0.000    
    165      4     45      1       109.9           109.9           0.000    
    166      5     45      1       109.9           109.9           0.000    


    166 TIME-VARIANT SPECIFIED-HEAD CELLS

 SOLVING FOR HEAD 


     3 CALLS TO PCG ROUTINE FOR TIME STEP   1 IN STRESS PERIOD  119
    57 TOTAL ITERATIONS

 MAXIMUM HEAD CHANGE FOR EACH ITERATION (1 INDICATES THE FIRST INNER ITERATION):

    HEAD CHANGE    HEAD CHANGE    HEAD CHANGE    HEAD CHANGE    HEAD CHANGE 
   LAYER,ROW,COL  LAYER,ROW,COL  LAYER,ROW,COL  LAYER,ROW,COL  LAYER,ROW,COL
 ---------------------------------------------------------------------------
  1 -0.9926E-01  0  0.5796E-01  0 -0.3352E-01  0  0.2754E-01  0 -0.4067E-01
   (  5, 43,  5)  (  5, 35,  1)  (  5, 31,  2)  (  5, 41,  2)  (  5, 37,  1)
  0  0.2057E-01  0 -0.2349E-01  0  0.2672E-01  0  0.1544E-01  0  0.1186E-01
   (  5, 35,  2)  (  5, 40,  1)  (  5, 37,  1)  (  5, 37,  6)  (  5, 40,  1)
  0  0.9145E-02  0  0.6073E-02  0 -0.6007E-02  0  0.5700E-02  0 -0.5697E-02
   (  5, 36, 10)  (  5, 29,  3)  (  5, 33,  9)  (  5, 31,  9)  (  5, 36,  8)
  0  0.2312E-02  0  0.3832E-02  0 -0.2554E-02  0  0.2104E-02  0 -0.1551E-02
   (  5, 35,  4)  (  5, 34,  8)  (  5, 32,  9)  (  5, 30, 10)  (  5, 37,  1)
  0  0.1221E-02  0  0.7402E-03  0 -0.9571E-03  0 -0.1018E-02  0  0.7202E-03
   (  5, 38,  4)  (  5, 32,  4)  (  5, 36,  4)  (  5, 14,  1)  (  5, 13,  1)
  0 -0.4149E-03  0  0.2652E-03  0 -0.2935E-03  0  0.2733E-03  0 -0.1450E-03
   (  5, 13,  1)  (  5, 34,  3)  (  5, 35,  1)  (  5, 38,  1)  (  5, 36,  1)
  1 -0.9480E-04  0 -0.7978E-04  0  0.1102E-03  0 -0.7955E-04  0 -0.1067E-03
   (  5, 30,  2)  (  5, 19,  9)  (  5, 39,  2)  (  5, 35,  3)  (  5, 41,  2)
  0  0.7781E-04  0 -0.5550E-04  0  0.4342E-04  0 -0.4977E-04  0  0.2935E-04
   (  5, 39,  2)  (  5, 39,  5)  (  5, 34,  3)  (  5, 40,  1)  (  5, 37,  1)
  0 -0.2215E-04  0  0.3255E-04  0  0.1901E-04  0 -0.1801E-04  0  0.1232E-04
   (  5, 31,  3)  (  5, 35,  3)  (  5, 41,  2)  (  5, 40,  1)  (  5, 39,  1)
  0  0.8598E-05  0  0.5643E-05  0 -0.5780E-05  0 -0.4631E-05  0  0.4528E-05
   (  5, 29,  9)  (  5, 37,  4)  (  5, 41,  1)  (  5, 28,  3)  (  5, 33,  3)
  0 -0.5338E-05  0 -0.2634E-05  0  0.2973E-05  0 -0.2704E-05  0  0.1582E-05
   (  5, 36,  9)  (  5, 39,  3)  (  5, 36,  1)  (  5, 36,  7)  (  5, 37,  6)
  0  0.9286E-06  1  0.7311E-06
   (  5, 40,  2)  (  5, 16,  1)

 MAXIMUM RESIDUAL FOR EACH ITERATION (1 INDICATES THE FIRST INNER ITERATION):

    RESIDUAL       RESIDUAL       RESIDUAL       RESIDUAL       RESIDUAL    
   LAYER,ROW,COL  LAYER,ROW,COL  LAYER,ROW,COL  LAYER,ROW,COL  LAYER,ROW,COL
 ---------------------------------------------------------------------------
  1  0.3989E-03  0  0.2948E-03  0  0.2479E-03  0  0.2210E-03  0  0.1794E-03
   (  4, 44,  2)  (  4, 44,  2)  (  4, 35, 35)  (  4, 35, 35)  (  4, 35, 35)
  0  0.1548E-03  0  0.1291E-03  0 -0.1090E-03  0 -0.9196E-04  0 -0.7820E-04
   (  3, 40, 27)  (  3, 40, 27)  (  4, 43,  5)  (  4, 43,  5)  (  4, 43,  4)
  0 -0.6221E-04  0 -0.5353E-04  0 -0.4624E-04  0 -0.3645E-04  0 -0.3088E-04
   (  4, 43,  4)  (  4, 43,  4)  (  4, 43,  4)  (  4, 44,  2)  (  4, 44,  2)
  0 -0.2917E-04  0 -0.2410E-04  0 -0.1873E-04  0 -0.1508E-04  0 -0.1224E-04
   (  4, 44,  2)  (  4, 44,  2)  (  4, 44,  2)  (  4, 44,  2)  (  4, 44,  2)
  0 -0.1024E-04  0 -0.9442E-05  0 -0.6966E-05  0 -0.5500E-05  0 -0.4441E-05
   (  4, 44,  2)  (  4, 44,  2)  (  4, 44,  2)  (  4, 34, 35)  (  4, 34, 35)
  0 -0.3494E-05  0 -0.3143E-05  0 -0.2707E-05  0 -0.2331E-05  0 -0.1702E-05
   (  4, 34, 35)  (  4, 34, 35)  (  4, 34, 35)  (  4, 34, 35)  (  4, 34, 35)
  1 -0.1694E-05  0 -0.1575E-05  0 -0.1355E-05  0 -0.1273E-05  0 -0.1015E-05
   (  4, 34, 35)  (  4, 34, 35)  (  4, 34, 35)  (  4, 34, 35)  (  4, 34, 35)
  0 -0.8834E-06  0 -0.7144E-06  0 -0.5706E-06  0 -0.3966E-06  0 -0.3096E-06
   (  4, 34, 35)  (  4, 34, 35)  (  4, 34, 35)  (  4, 34, 35)  (  4, 34, 35)
  0 -0.2844E-06  0 -0.2015E-06  0  0.1322E-06  0  0.1043E-06  0  0.7802E-07
   (  4, 34, 35)  (  4, 34, 35)  (  4, 35, 35)  (  4, 35, 35)  (  4, 35, 35)
  0  0.5702E-07  0  0.5298E-07  0  0.4303E-07  0  0.3729E-07  0  0.3352E-07
   (  4, 35, 35)  (  4, 35, 35)  (  4, 35, 35)  (  4, 35, 35)  (  4, 35, 35)
  0  0.2575E-07  0  0.2272E-07  0  0.1696E-07  0  0.1309E-07  0  0.1035E-07
   (  4, 35, 35)  (  4, 35, 35)  (  4, 35, 35)  (  3, 41, 22)  (  3, 41, 22)
  0  0.8026E-08  1  0.7686E-08
   (  3, 41, 22)  (  3, 41, 22)



 OUTPUT CONTROL FOR STRESS PERIOD  119   TIME STEP    1
    SAVE HEAD FOR ALL LAYERS
    SAVE DRAWDOWN FOR ALL LAYERS
    SAVE BUDGET
    PRINT BUDGET
 UBDSV1 SAVING "         STORAGE" ON UNIT   9 AT TIME STEP  1, STRESS PERIOD 119
 UBDSV2 SAVING "   CONSTANT HEAD" ON UNIT   9 AT TIME STEP  1, STRESS PERIOD 119
 UBDSV1 SAVING "FLOW RIGHT FACE " ON UNIT   9 AT TIME STEP  1, STRESS PERIOD 119
 UBDSV1 SAVING "FLOW FRONT FACE " ON UNIT   9 AT TIME STEP  1, STRESS PERIOD 119
 UBDSV1 SAVING "FLOW LOWER FACE " ON UNIT   9 AT TIME STEP  1, STRESS PERIOD 119
 UBDSV3 SAVING "        RECHARGE" ON UNIT   9 AT TIME STEP  1, STRESS PERIOD 119

 HEAD WILL BE SAVED ON UNIT   37 AT END OF TIME STEP    1, STRESS PERIOD  119

 DRAWDOWN WILL BE SAVED ON UNIT   38 AT END OF TIME STEP    1, STRESS PERIOD  119
1
  VOLUMETRIC BUDGET FOR ENTIRE MODEL AT END OF TIME STEP    1, STRESS PERIOD 119
  ------------------------------------------------------------------------------

     CUMULATIVE VOLUMES      L**3       RATES FOR THIS TIME STEP      L**3/T
     ------------------                 ------------------------

           IN:                                      IN:
           ---                                      ---
             STORAGE =       18102.2754               STORAGE =       6.4620E-04
       CONSTANT HEAD =       30562.8672         CONSTANT HEAD =       1.0342E-03
            RECHARGE =        1455.9503              RECHARGE =       1.0213E-04

            TOTAL IN =       50121.0898              TOTAL IN =       1.7825E-03

          OUT:                                     OUT:
          ----                                     ----
             STORAGE =       14996.9971               STORAGE =           0.0000
       CONSTANT HEAD =       35125.5625         CONSTANT HEAD =       1.7828E-03
            RECHARGE =           0.0000              RECHARGE =           0.0000

           TOTAL OUT =       50122.5586             TOTAL OUT =       1.7828E-03

            IN - OUT =          -1.4688              IN - OUT =      -2.2037E-07

 PERCENT DISCREPANCY =          -0.00     PERCENT DISCREPANCY =          -0.01






         TIME SUMMARY AT END OF TIME STEP    1 IN STRESS PERIOD  119
                    SECONDS     MINUTES      HOURS       DAYS        YEARS
                    -----------------------------------------------------------
   TIME STEP LENGTH  86400.      1440.0      24.000      1.0000     2.73785E-03
 STRESS PERIOD TIME  86400.      1440.0      24.000      1.0000     2.73785E-03
         TOTAL TIME 1.42560E+07 2.37600E+05  3960.0      165.00     0.45175    
1
1
                            STRESS PERIOD NO.  120, LENGTH =   259200.0    
                            -----------------------------------------------

                              NUMBER OF TIME STEPS =     3

                               MULTIPLIER FOR DELT =     1.000

                            INITIAL TIME STEP SIZE =   86400.00    

 REUSING RECH FROM LAST STRESS PERIOD

 CHD NO.   LAYER   ROW   COL    START HEAD        END HEAD         IFACE           
 ----------------------------------------------------------------------------------
      1      4      3      1       110.0           110.0           0.000    
      2      5      3      1       110.0           110.0           0.000    
      3      4      3      2       110.0           110.0           0.000    
      4      5      3      2       110.0           110.0           0.000    
      5      4      3      3       110.0           110.0           0.000    
      6      5      3      3       110.0           110.0           0.000    
      7      4      3      4       110.0           110.0           0.000    
      8      5      3      4       110.0           110.0           0.000    
      9      4      3      5       110.0           110.0           0.000    
     10      5      3      5       110.0           110.0           0.000    
     11      4      3      6       110.0           110.0           0.000    
     12      5      3      6       110.0           110.0           0.000    
     13      4      3      7       110.0           110.0           0.000    
     14      5      3      7       110.0           110.0           0.000    
     15      4      3      8       110.0           110.0           0.000    
     16      5      3      8       110.0           110.0           0.000    
     17      4      2      8       110.0           110.0           0.000    
     18      5      2      8       110.0           110.0           0.000    
     19      4      2      9       110.0           110.0           0.000    
     20      5      2      9       110.0           110.0           0.000    
     21      4      2     10       110.0           110.0           0.000    
     22      5      2     10       110.0           110.0           0.000    
     23      4      2     11       110.0           110.0           0.000    
     24      5      2     11       110.0           110.0           0.000    
     25      4      2     12       110.0           110.0           0.000    
     26      5      2     12       110.0           110.0           0.000    
     27      4      2     13       110.0           110.0           0.000    
     28      5      2     13       110.0           110.0           0.000    
     29      4      2     14       110.0           110.0           0.000    
     30      5      2     14       110.0           110.0           0.000    
     31      4      2     15       110.0           110.0           0.000    
     32      5      2     15       110.0           110.0           0.000    
     33      4      2     16       110.0           110.0           0.000    
     34      5      2     16       110.0           110.0           0.000    
     35      4      2     17       110.0           110.0           0.000    
     36      5      2     17       110.0           110.0           0.000    
     37      4      2     18       110.0           110.0           0.000    
     38      5      2     18       110.0           110.0           0.000    
     39      4      2     19       110.0           110.0           0.000    
     40      5      2     19       110.0           110.0           0.000    
     41      4      2     20       110.0           110.0           0.000    
     42      5      2     20       110.0           110.0           0.000    
     43      4      2     21       110.0           110.0           0.000    
     44      5      2     21       110.0           110.0           0.000    
     45      4      2     22       110.0           110.0           0.000    
     46      5      2     22       110.0           110.0           0.000    
     47      4      2     23       110.0           110.0           0.000    
     48      5      2     23       110.0           110.0           0.000    
     49      4      2     24       110.0           110.0           0.000    
     50      5      2     24       110.0           110.0           0.000    
     51      4      2     25       110.0           110.0           0.000    
     52      5      2     25       110.0           110.0           0.000    
     53      4      2     26       110.0           110.0           0.000    
     54      5      2     26       110.0           110.0           0.000    
     55      4      1     26       110.0           110.0           0.000    
     56      5      1     26       110.0           110.0           0.000    
     57      4      1     27       110.0           110.0           0.000    
     58      5      1     27       110.0           110.0           0.000    
     59      4      1     28       110.0           110.0           0.000    
     60      5      1     28       110.0           110.0           0.000    
     61      4      1     29       110.0           110.0           0.000    
     62      5      1     29       110.0           110.0           0.000    
     63      4      1     30       110.0           110.0           0.000    
     64      5      1     30       110.0           110.0           0.000    
     65      4      1     31       110.0           110.0           0.000    
     66      5      1     31       110.0           110.0           0.000    
     67      4      1     32       110.0           110.0           0.000    
     68      5      1     32       110.0           110.0           0.000    
     69      4      1     33       110.0           110.0           0.000    
     70      5      1     33       110.0           110.0           0.000    
     71      4      1     34       110.0           110.0           0.000    
     72      5      1     34       110.0           110.0           0.000    
     73      4      1     35       110.0           110.0           0.000    
     74      5      1     35       110.0           110.0           0.000    
     75      4     36     35       109.9           109.8           0.000    
     76      5     36     35       109.9           109.8           0.000    
     77      4     35     34       109.9           109.8           0.000    
     78      5     35     34       109.9           109.8           0.000    
     79      4     36     34       109.9           109.8           0.000    
     80      5     36     34       109.9           109.8           0.000    
     81      4     36     33       109.9           109.8           0.000    
     82      5     36     33       109.9           109.8           0.000    
     83      4     36     32       109.9           109.8           0.000    
     84      5     36     32       109.9           109.8           0.000    
     85      4     37     32       109.9           109.8           0.000    
     86      5     37     32       109.9           109.8           0.000    
     87      4     37     31       109.9           109.8           0.000    
     88      5     37     31       109.9           109.8           0.000    
     89      4     38     31       109.9           109.8           0.000    
     90      5     38     31       109.9           109.8           0.000    
     91      4     38     30       109.9           109.8           0.000    
     92      5     38     30       109.9           109.8           0.000    
     93      4     39     30       109.9           109.8           0.000    
     94      5     39     30       109.9           109.8           0.000    
     95      4     39     29       109.9           109.8           0.000    
     96      5     39     29       109.9           109.8           0.000    
     97      4     40     29       109.9           109.8           0.000    
     98      5     40     29       109.9           109.8           0.000    
     99      4     40     28       109.9           109.8           0.000    
    100      5     40     28       109.9           109.8           0.000    
    101      4     40     27       109.9           109.8           0.000    
    102      5     40     27       109.9           109.8           0.000    
    103      4     41     27       109.9           109.8           0.000    
    104      5     41     27       109.9           109.8           0.000    
    105      4     41     26       109.9           109.8           0.000    
    106      5     41     26       109.9           109.8           0.000    
    107      4     41     25       109.9           109.8           0.000    
    108      5     41     25       109.9           109.8           0.000    
    109      4     41     24       109.9           109.8           0.000    
    110      5     41     24       109.9           109.8           0.000    
    111      4     41     23       109.9           109.8           0.000    
    112      5     41     23       109.9           109.8           0.000    
    113      4     41     22       109.9           109.8           0.000    
    114      5     41     22       109.9           109.8           0.000    
    115      4     42     22       109.9           109.8           0.000    
    116      5     42     22       109.9           109.8           0.000    
    117      4     42     21       109.9           109.8           0.000    
    118      5     42     21       109.9           109.8           0.000    
    119      4     42     20       109.9           109.8           0.000    
    120      5     42     20       109.9           109.8           0.000    
    121      4     42     19       109.9           109.8           0.000    
    122      5     42     19       109.9           109.8           0.000    
    123      4     43     18       109.9           109.8           0.000    
    124      5     43     18       109.9           109.8           0.000    
    125      4     42     18       109.9           109.8           0.000    
    126      5     42     18       109.9           109.8           0.000    
    127      4     42     17       109.9           109.8           0.000    
    128      5     42     17       109.9           109.8           0.000    
    129      4     42     16       109.9           109.8           0.000    
    130      5     42     16       109.9           109.8           0.000    
    131      4     42     15       109.9           109.8           0.000    
    132      5     42     15       109.9           109.8           0.000    
    133      4     43     15       109.9           109.8           0.000    
    134      5     43     15       109.9           109.8           0.000    
    135      4     43     14       109.9           109.8           0.000    
    136      5     43     14       109.9           109.8           0.000    
    137      4     43     13       109.9           109.8           0.000    
    138      5     43     13       109.9           109.8           0.000    
    139      4     43     12       109.9           109.8           0.000    
    140      5     43     12       109.9           109.8           0.000    
    141      4     43     11       109.9           109.8           0.000    
    142      5     43     11       109.9           109.8           0.000    
    143      4     43     10       109.9           109.8           0.000    
    144      5     43     10       109.9           109.8           0.000    
    145      4     44     10       109.9           109.8           0.000    
    146      5     44     10       109.9           109.8           0.000    
    147      4     44      9       109.9           109.8           0.000    
    148      5     44      9       109.9           109.8           0.000    
    149      4     44      8       109.9           109.8           0.000    
    150      5     44      8       109.9           109.8           0.000    
    151      4     44      7       109.9           109.8           0.000    
    152      5     44      7       109.9           109.8           0.000    
    153      4     44      6       109.9           109.8           0.000    
    154      5     44      6       109.9           109.8           0.000    
    155      4     44      5       109.9           109.8           0.000    
    156      5     44      5       109.9           109.8           0.000    
    157      4     44      4       109.9           109.8           0.000    
    158      5     44      4       109.9           109.8           0.000    
    159      4     44      3       109.9           109.8           0.000    
    160      5     44      3       109.9           109.8           0.000    
    161      4     45      3       109.9           109.8           0.000    
    162      5     45      3       109.9           109.8           0.000    
    163      4     45      2       109.9           109.8           0.000    
    164      5     45      2       109.9           109.8           0.000    
    165      4     45      1       109.9           109.8           0.000    
    166      5     45      1       109.9           109.8           0.000    


    166 TIME-VARIANT SPECIFIED-HEAD CELLS

 SOLVING FOR HEAD 


     3 CALLS TO PCG ROUTINE FOR TIME STEP   1 IN STRESS PERIOD  120
    58 TOTAL ITERATIONS

 MAXIMUM HEAD CHANGE FOR EACH ITERATION (1 INDICATES THE FIRST INNER ITERATION):

    HEAD CHANGE    HEAD CHANGE    HEAD CHANGE    HEAD CHANGE    HEAD CHANGE 
   LAYER,ROW,COL  LAYER,ROW,COL  LAYER,ROW,COL  LAYER,ROW,COL  LAYER,ROW,COL
 ---------------------------------------------------------------------------
  1 -0.8957E-01  0  0.4824E-01  0 -0.2790E-01  0  0.2479E-01  0 -0.3081E-01
   (  5, 43,  5)  (  5, 35,  1)  (  5, 30,  2)  (  5, 41,  2)  (  5, 37,  1)
  0 -0.1865E-01  0 -0.2093E-01  0  0.2238E-01  0  0.1275E-01  0  0.9993E-02
   (  5, 39,  1)  (  5, 40,  1)  (  5, 37,  1)  (  5, 37,  6)  (  5, 40,  1)
  0  0.9049E-02  0 -0.7028E-02  0 -0.3503E-02  0  0.5611E-02  0 -0.3881E-02
   (  5, 35,  9)  (  5, 33, 10)  (  5, 31,  2)  (  5, 30,  9)  (  5, 35,  8)
  0 -0.2440E-02  0  0.2129E-02  0  0.1963E-02  0 -0.1453E-02  0  0.1380E-02
   (  5, 35,  2)  (  5, 37,  1)  (  5, 15,  1)  (  5, 36,  1)  (  5, 38,  4)
  0 -0.1285E-02  0  0.8777E-03  0 -0.5276E-03  0 -0.8509E-03  0  0.6604E-03
   (  5, 37,  1)  (  5, 32,  4)  (  5, 29,  1)  (  5, 13,  1)  (  5, 13,  1)
  0  0.4265E-03  0  0.2723E-03  0 -0.2195E-03  0  0.2314E-03  0 -0.1646E-03
   (  5, 37,  1)  (  5, 34,  3)  (  5, 35,  1)  (  5, 38,  1)  (  5, 41,  2)
  1 -0.1015E-03  0  0.8560E-04  0 -0.1019E-03  0 -0.4649E-04  0 -0.6167E-04
   (  5, 32,  5)  (  5, 33,  1)  (  5, 41,  1)  (  5, 26,  6)  (  5, 35,  3)
  0  0.7514E-04  0 -0.6114E-04  0 -0.4965E-04  0 -0.3060E-04  0  0.3559E-04
   (  5, 34,  1)  (  5, 37,  1)  (  5, 33,  4)  (  5, 39,  1)  (  5, 37,  1)
  0 -0.2424E-04  0  0.2373E-04  0  0.2361E-04  0 -0.1190E-04  0 -0.9964E-05
   (  5, 32,  3)  (  5, 35,  3)  (  5, 41,  2)  (  5, 39,  1)  (  5, 34,  3)
  0  0.8036E-05  0 -0.5152E-05  0 -0.7550E-05  0  0.6362E-05  0 -0.4211E-05
   (  5, 39,  1)  (  5, 36,  1)  (  5, 32,  9)  (  5, 34,  8)  (  5, 35,  7)
  0  0.3127E-05  0 -0.2381E-05  0  0.3203E-05  0 -0.2469E-05  0  0.1464E-05
   (  5, 33,  3)  (  5, 39,  5)  (  5, 36,  1)  (  5, 38,  1)  (  5, 35,  9)
  0  0.1353E-05  0  0.9130E-06  1  0.4790E-06
   (  5, 40,  1)  (  5, 37,  1)  (  5, 34,  4)

 MAXIMUM RESIDUAL FOR EACH ITERATION (1 INDICATES THE FIRST INNER ITERATION):

    RESIDUAL       RESIDUAL       RESIDUAL       RESIDUAL       RESIDUAL    
   LAYER,ROW,COL  LAYER,ROW,COL  LAYER,ROW,COL  LAYER,ROW,COL  LAYER,ROW,COL
 ---------------------------------------------------------------------------
  1  0.4198E-03  0  0.3173E-03  0  0.2712E-03  0  0.2454E-03  0  0.2082E-03
   (  4, 44,  2)  (  4, 44,  2)  (  4, 35, 35)  (  4, 35, 35)  (  4, 35, 35)
  0  0.1757E-03  0  0.1461E-03  0  0.1159E-03  0  0.9223E-04  0  0.7025E-04
   (  4, 35, 35)  (  3, 40, 27)  (  3, 40, 27)  (  3, 40, 27)  (  3, 40, 27)
  0 -0.5531E-04  0 -0.4632E-04  0 -0.4374E-04  0 -0.3527E-04  0 -0.2760E-04
   (  3, 35, 35)  (  3, 35, 35)  (  3, 35, 35)  (  3, 35, 35)  (  3, 35, 35)
  0 -0.2524E-04  0 -0.1995E-04  0 -0.1512E-04  0 -0.1251E-04  0 -0.1093E-04
   (  3, 35, 35)  (  4, 43,  4)  (  4, 44,  2)  (  4, 44,  2)  (  4, 44,  2)
  0 -0.9650E-05  0 -0.8143E-05  0 -0.7773E-05  0 -0.6147E-05  0 -0.4872E-05
   (  4, 34, 35)  (  4, 34, 35)  (  4, 34, 35)  (  4, 34, 35)  (  4, 34, 35)
  0 -0.4018E-05  0 -0.3588E-05  0 -0.3324E-05  0 -0.2482E-05  0 -0.1731E-05
   (  4, 34, 35)  (  4, 34, 35)  (  4, 34, 35)  (  4, 34, 35)  (  4, 34, 35)
  1 -0.1673E-05  0 -0.1611E-05  0 -0.1371E-05  0 -0.1285E-05  0 -0.1125E-05
   (  4, 34, 35)  (  4, 34, 35)  (  4, 34, 35)  (  4, 34, 35)  (  4, 34, 35)
  0 -0.9505E-06  0 -0.8281E-06  0 -0.6270E-06  0 -0.4829E-06  0 -0.3707E-06
   (  4, 34, 35)  (  4, 34, 35)  (  4, 34, 35)  (  4, 34, 35)  (  4, 34, 35)
  0 -0.3221E-06  0 -0.2600E-06  0  0.1966E-06  0  0.1568E-06  0  0.1156E-06
   (  4, 34, 35)  (  4, 34, 35)  (  4, 35, 35)  (  4, 35, 35)  (  4, 35, 35)
  0  0.8664E-07  0  0.7893E-07  0  0.6412E-07  0  0.4839E-07  0  0.4136E-07
   (  4, 35, 35)  (  4, 35, 35)  (  4, 35, 35)  (  4, 35, 35)  (  4, 35, 35)
  0  0.3507E-07  0  0.2928E-07  0  0.2382E-07  0  0.1761E-07  0  0.1277E-07
   (  4, 35, 35)  (  4, 35, 35)  (  4, 35, 35)  (  4, 35, 35)  (  4, 35, 35)
  0  0.9492E-08  0  0.6969E-08  1  0.6654E-08
   (  4, 35, 35)  (  4, 35, 35)  (  4, 35, 35)



 OUTPUT CONTROL FOR STRESS PERIOD  120   TIME STEP    1
    SAVE HEAD FOR ALL LAYERS
    SAVE DRAWDOWN FOR ALL LAYERS
    SAVE BUDGET
    PRINT BUDGET
 UBDSV1 SAVING "         STORAGE" ON UNIT   9 AT TIME STEP  1, STRESS PERIOD 120
 UBDSV2 SAVING "   CONSTANT HEAD" ON UNIT   9 AT TIME STEP  1, STRESS PERIOD 120
 UBDSV1 SAVING "FLOW RIGHT FACE " ON UNIT   9 AT TIME STEP  1, STRESS PERIOD 120
 UBDSV1 SAVING "FLOW FRONT FACE " ON UNIT   9 AT TIME STEP  1, STRESS PERIOD 120
 UBDSV1 SAVING "FLOW LOWER FACE " ON UNIT   9 AT TIME STEP  1, STRESS PERIOD 120
 UBDSV3 SAVING "        RECHARGE" ON UNIT   9 AT TIME STEP  1, STRESS PERIOD 120

 HEAD WILL BE SAVED ON UNIT   37 AT END OF TIME STEP    1, STRESS PERIOD  120

 DRAWDOWN WILL BE SAVED ON UNIT   38 AT END OF TIME STEP    1, STRESS PERIOD  120
1
  VOLUMETRIC BUDGET FOR ENTIRE MODEL AT END OF TIME STEP    1, STRESS PERIOD 120
  ------------------------------------------------------------------------------

     CUMULATIVE VOLUMES      L**3       RATES FOR THIS TIME STEP      L**3/T
     ------------------                 ------------------------

           IN:                                      IN:
           ---                                      ---
             STORAGE =       18167.7734               STORAGE =       7.5808E-04
       CONSTANT HEAD =       30670.1387         CONSTANT HEAD =       1.2416E-03
            RECHARGE =        1464.7743              RECHARGE =       1.0213E-04

            TOTAL IN =       50302.6875              TOTAL IN =       2.1018E-03

          OUT:                                     OUT:
          ----                                     ----
             STORAGE =       14996.9971               STORAGE =           0.0000
       CONSTANT HEAD =       35307.1719         CONSTANT HEAD =       2.1020E-03
            RECHARGE =           0.0000              RECHARGE =           0.0000

           TOTAL OUT =       50304.1680             TOTAL OUT =       2.1020E-03

            IN - OUT =          -1.4805              IN - OUT =      -1.8231E-07

 PERCENT DISCREPANCY =          -0.00     PERCENT DISCREPANCY =          -0.01






         TIME SUMMARY AT END OF TIME STEP    1 IN STRESS PERIOD  120
                    SECONDS     MINUTES      HOURS       DAYS        YEARS
                    -----------------------------------------------------------
   TIME STEP LENGTH  86400.      1440.0      24.000      1.0000     2.73785E-03
 STRESS PERIOD TIME  86400.      1440.0      24.000      1.0000     2.73785E-03
         TOTAL TIME 1.43424E+07 2.39040E+05  3984.0      166.00     0.45448    
1

 SOLVING FOR HEAD 
     3 CALLS TO PCG ROUTINE FOR TIME STEP   2 IN STRESS PERIOD  120
    58 TOTAL ITERATIONS

 MAXIMUM HEAD CHANGE FOR EACH ITERATION (1 INDICATES THE FIRST INNER ITERATION):

    HEAD CHANGE    HEAD CHANGE    HEAD CHANGE    HEAD CHANGE    HEAD CHANGE 
   LAYER,ROW,COL  LAYER,ROW,COL  LAYER,ROW,COL  LAYER,ROW,COL  LAYER,ROW,COL
 ---------------------------------------------------------------------------
  1 -0.9016E-01  0  0.4799E-01  0 -0.2783E-01  0  0.2483E-01  0 -0.3030E-01
   (  5, 43,  5)  (  5, 35,  1)  (  5, 30,  2)  (  5, 41,  2)  (  5, 37,  1)
  0 -0.1921E-01  0 -0.2102E-01  0  0.2225E-01  0  0.1269E-01  0  0.9983E-02
   (  5, 39,  1)  (  5, 40,  1)  (  5, 37,  1)  (  5, 37,  6)  (  5, 40,  2)
  0  0.9309E-02  0 -0.9429E-02  0  0.3089E-02  0  0.4857E-02  0 -0.3955E-02
   (  5, 35,  9)  (  5, 32,  9)  (  5, 31,  4)  (  5, 30,  9)  (  5, 36,  9)
  0 -0.2433E-02  0  0.2291E-02  0  0.1994E-02  0 -0.1419E-02  0  0.1367E-02
   (  5, 35,  2)  (  5, 37,  1)  (  5, 15,  1)  (  5, 38,  7)  (  5, 36,  7)
  0 -0.1066E-02  0  0.6789E-03  0 -0.6111E-03  0 -0.8056E-03  0  0.6563E-03
   (  5, 37,  1)  (  5, 34,  1)  (  5, 33,  6)  (  5, 13,  1)  (  5, 13,  1)
  0 -0.3639E-03  0  0.2773E-03  0 -0.2371E-03  0 -0.1605E-03  0 -0.1680E-03
   (  5, 13,  1)  (  5, 38,  1)  (  5, 35,  1)  (  5, 40,  2)  (  5, 34,  4)
  1  0.7171E-04  0 -0.9908E-04  0  0.9485E-04  0  0.8273E-04  0 -0.6771E-04
   (  5, 33,  3)  (  5, 32,  5)  (  5, 39,  2)  (  5, 33,  4)  (  5, 37,  1)
  0  0.7511E-04  0 -0.4076E-04  0 -0.3947E-04  0 -0.3432E-04  0  0.3508E-04
   (  5, 34,  1)  (  5, 37,  2)  (  5, 32,  8)  (  5, 39,  1)  (  5, 37,  1)
  0 -0.2378E-04  0  0.2380E-04  0  0.2166E-04  0  0.1900E-04  0 -0.1317E-04
   (  5, 31,  3)  (  5, 35,  3)  (  5, 41,  2)  (  5, 14,  1)  (  5, 13,  1)
  0  0.9796E-05  0  0.6064E-05  0 -0.6516E-05  0  0.6889E-05  0 -0.2516E-05
   (  5, 29,  9)  (  5, 37,  4)  (  5, 32,  9)  (  5, 34,  8)  (  5, 30,  3)
  0 -0.4473E-05  0 -0.2509E-05  0  0.3344E-05  0 -0.2287E-05  0  0.1477E-05
   (  5, 36,  9)  (  5, 39,  3)  (  5, 36,  1)  (  5, 36,  6)  (  5, 40,  6)
  0  0.1334E-05  0 -0.9999E-06  1  0.5107E-06
   (  5, 40,  1)  (  5, 41,  5)  (  5, 33,  3)

 MAXIMUM RESIDUAL FOR EACH ITERATION (1 INDICATES THE FIRST INNER ITERATION):

    RESIDUAL       RESIDUAL       RESIDUAL       RESIDUAL       RESIDUAL    
   LAYER,ROW,COL  LAYER,ROW,COL  LAYER,ROW,COL  LAYER,ROW,COL  LAYER,ROW,COL
 ---------------------------------------------------------------------------
  1  0.4173E-03  0  0.3158E-03  0  0.2738E-03  0  0.2480E-03  0  0.2106E-03
   (  4, 44,  2)  (  4, 44,  2)  (  4, 35, 35)  (  4, 35, 35)  (  4, 35, 35)
  0  0.1770E-03  0  0.1461E-03  0  0.1158E-03  0  0.9217E-04  0  0.7016E-04
   (  4, 35, 35)  (  3, 40, 27)  (  3, 40, 27)  (  3, 40, 27)  (  3, 40, 27)
  0 -0.5590E-04  0 -0.4599E-04  0 -0.4387E-04  0 -0.3559E-04  0 -0.2741E-04
   (  3, 35, 35)  (  3, 35, 35)  (  3, 35, 35)  (  3, 35, 35)  (  3, 35, 35)
  0 -0.2490E-04  0 -0.2009E-04  0 -0.1519E-04  0 -0.1252E-04  0 -0.1010E-04
   (  4, 43,  4)  (  4, 43,  4)  (  4, 44,  2)  (  4, 44,  2)  (  4, 34, 35)
  0 -0.8790E-05  0 -0.8176E-05  0 -0.7715E-05  0 -0.6138E-05  0 -0.4834E-05
   (  4, 34, 35)  (  4, 34, 35)  (  4, 34, 35)  (  4, 34, 35)  (  4, 34, 35)
  0 -0.3695E-05  0 -0.3117E-05  0 -0.2685E-05  0 -0.2386E-05  0 -0.1723E-05
   (  4, 34, 35)  (  4, 34, 35)  (  4, 34, 35)  (  4, 34, 35)  (  4, 34, 35)
  1 -0.1697E-05  0 -0.1606E-05  0 -0.1448E-05  0 -0.1289E-05  0 -0.1207E-05
   (  4, 34, 35)  (  4, 34, 35)  (  4, 34, 35)  (  4, 34, 35)  (  4, 34, 35)
  0 -0.9348E-06  0 -0.8395E-06  0 -0.6119E-06  0 -0.4892E-06  0 -0.3601E-06
   (  4, 34, 35)  (  4, 34, 35)  (  4, 34, 35)  (  4, 34, 35)  (  4, 34, 35)
  0 -0.3153E-06  0  0.2556E-06  0  0.2009E-06  0  0.1556E-06  0  0.1163E-06
   (  4, 34, 35)  (  4, 35, 35)  (  4, 35, 35)  (  4, 35, 35)  (  4, 35, 35)
  0  0.9394E-07  0  0.8422E-07  0  0.6552E-07  0  0.4858E-07  0  0.4594E-07
   (  4, 35, 35)  (  4, 35, 35)  (  4, 35, 35)  (  4, 35, 35)  (  4, 35, 35)
  0  0.3551E-07  0  0.2988E-07  0  0.2385E-07  0  0.1745E-07  0  0.1280E-07
   (  4, 35, 35)  (  4, 35, 35)  (  4, 35, 35)  (  4, 35, 35)  (  4, 35, 35)
  0  0.9420E-08  0  0.6850E-08  1  0.6687E-08
   (  4, 35, 35)  (  4, 35, 35)  (  4, 35, 35)



 OUTPUT CONTROL FOR STRESS PERIOD  120   TIME STEP    2
    SAVE HEAD FOR ALL LAYERS
    SAVE DRAWDOWN FOR ALL LAYERS
    SAVE BUDGET
    PRINT BUDGET
 UBDSV1 SAVING "         STORAGE" ON UNIT   9 AT TIME STEP  2, STRESS PERIOD 120
 UBDSV2 SAVING "   CONSTANT HEAD" ON UNIT   9 AT TIME STEP  2, STRESS PERIOD 120
 UBDSV1 SAVING "FLOW RIGHT FACE " ON UNIT   9 AT TIME STEP  2, STRESS PERIOD 120
 UBDSV1 SAVING "FLOW FRONT FACE " ON UNIT   9 AT TIME STEP  2, STRESS PERIOD 120
 UBDSV1 SAVING "FLOW LOWER FACE " ON UNIT   9 AT TIME STEP  2, STRESS PERIOD 120
 UBDSV3 SAVING "        RECHARGE" ON UNIT   9 AT TIME STEP  2, STRESS PERIOD 120

 HEAD WILL BE SAVED ON UNIT   37 AT END OF TIME STEP    2, STRESS PERIOD  120

 DRAWDOWN WILL BE SAVED ON UNIT   38 AT END OF TIME STEP    2, STRESS PERIOD  120
1
  VOLUMETRIC BUDGET FOR ENTIRE MODEL AT END OF TIME STEP    2, STRESS PERIOD 120
  ------------------------------------------------------------------------------

     CUMULATIVE VOLUMES      L**3       RATES FOR THIS TIME STEP      L**3/T
     ------------------                 ------------------------

           IN:                                      IN:
           ---                                      ---
             STORAGE =       18237.3984               STORAGE =       8.0585E-04
       CONSTANT HEAD =       30793.7441         CONSTANT HEAD =       1.4306E-03
            RECHARGE =        1473.5983              RECHARGE =       1.0213E-04

            TOTAL IN =       50504.7383              TOTAL IN =       2.3386E-03

          OUT:                                     OUT:
          ----                                     ----
             STORAGE =       14996.9971               STORAGE =           0.0000
       CONSTANT HEAD =       35509.2422         CONSTANT HEAD =       2.3388E-03
            RECHARGE =           0.0000              RECHARGE =           0.0000

           TOTAL OUT =       50506.2383             TOTAL OUT =       2.3388E-03

            IN - OUT =          -1.5000              IN - OUT =      -2.0047E-07

 PERCENT DISCREPANCY =          -0.00     PERCENT DISCREPANCY =          -0.01






         TIME SUMMARY AT END OF TIME STEP    2 IN STRESS PERIOD  120
                    SECONDS     MINUTES      HOURS       DAYS        YEARS
                    -----------------------------------------------------------
   TIME STEP LENGTH  86400.      1440.0      24.000      1.0000     2.73785E-03
 STRESS PERIOD TIME 1.72800E+05  2880.0      48.000      2.0000     5.47570E-03
         TOTAL TIME 1.44288E+07 2.40480E+05  4008.0      167.00     0.45722    
1

 SOLVING FOR HEAD 
     3 CALLS TO PCG ROUTINE FOR TIME STEP   3 IN STRESS PERIOD  120
    58 TOTAL ITERATIONS

 MAXIMUM HEAD CHANGE FOR EACH ITERATION (1 INDICATES THE FIRST INNER ITERATION):

    HEAD CHANGE    HEAD CHANGE    HEAD CHANGE    HEAD CHANGE    HEAD CHANGE 
   LAYER,ROW,COL  LAYER,ROW,COL  LAYER,ROW,COL  LAYER,ROW,COL  LAYER,ROW,COL
 ---------------------------------------------------------------------------
  1 -0.9037E-01  0  0.4797E-01  0 -0.2783E-01  0  0.2485E-01  0 -0.3017E-01
   (  5, 43,  5)  (  5, 35,  1)  (  5, 30,  2)  (  5, 41,  2)  (  5, 37,  1)
  0 -0.1939E-01  0 -0.2106E-01  0  0.2221E-01  0  0.1268E-01  0  0.9972E-02
   (  5, 39,  1)  (  5, 40,  1)  (  5, 37,  1)  (  5, 37,  6)  (  5, 40,  2)
  0  0.9199E-02  0 -0.6962E-02  0 -0.3580E-02  0  0.5606E-02  0 -0.4230E-02
   (  5, 35,  9)  (  5, 32,  9)  (  5, 31,  2)  (  5, 30,  9)  (  5, 36,  8)
  0  0.2429E-02  0 -0.1818E-02  0  0.2276E-02  0  0.1467E-02  0  0.1384E-02
   (  5, 37,  1)  (  5, 34,  1)  (  5, 36,  4)  (  5, 30, 10)  (  5, 36,  7)
  0  0.9666E-03  0  0.1010E-02  0 -0.7763E-03  0 -0.8305E-03  0  0.6516E-03
   (  5, 38,  4)  (  5, 32,  4)  (  5, 36,  4)  (  5, 13,  1)  (  5, 13,  1)
  0 -0.3490E-03  0  0.2818E-03  0 -0.2390E-03  0 -0.1752E-03  0  0.8519E-04
   (  5, 40,  2)  (  5, 38,  1)  (  5, 39,  4)  (  5, 34,  4)  (  5, 31,  3)
  1 -0.7838E-04  0  0.1047E-03  0 -0.9784E-04  0  0.1063E-03  0 -0.1149E-03
   (  5, 30,  3)  (  5, 34,  1)  (  5, 35,  3)  (  5, 38,  4)  (  5, 37,  1)
  0  0.6388E-04  0  0.4010E-04  0 -0.4385E-04  0 -0.3043E-04  0 -0.2784E-04
   (  5, 39,  2)  (  5, 40,  2)  (  5, 39,  1)  (  5, 23,  7)  (  5, 34,  1)
  0  0.1571E-04  0 -0.2640E-04  0  0.2246E-04  0  0.1865E-04  0 -0.1062E-04
   (  5, 34,  3)  (  5, 32,  4)  (  5, 41,  2)  (  5, 14,  1)  (  5, 34,  3)
  0  0.9378E-05  0  0.9849E-05  0 -0.7645E-05  0  0.6023E-05  0  0.3705E-05
   (  5, 33,  1)  (  5, 29,  9)  (  5, 32,  9)  (  5, 34,  8)  (  5, 30,  2)
  0 -0.4386E-05  0  0.3809E-05  0  0.2550E-05  0 -0.2313E-05  0  0.1467E-05
   (  5, 36,  8)  (  5, 36,  1)  (  5, 37,  8)  (  5, 36,  6)  (  5, 40,  6)
  0  0.1388E-05  0 -0.6478E-06  1  0.6989E-06
   (  5, 40,  2)  (  5, 37,  3)  (  5, 34,  1)

 MAXIMUM RESIDUAL FOR EACH ITERATION (1 INDICATES THE FIRST INNER ITERATION):

    RESIDUAL       RESIDUAL       RESIDUAL       RESIDUAL       RESIDUAL    
   LAYER,ROW,COL  LAYER,ROW,COL  LAYER,ROW,COL  LAYER,ROW,COL  LAYER,ROW,COL
 ---------------------------------------------------------------------------
  1  0.4166E-03  0  0.3153E-03  0  0.2746E-03  0  0.2487E-03  0  0.2113E-03
   (  4, 44,  2)  (  4, 44,  2)  (  4, 35, 35)  (  4, 35, 35)  (  4, 35, 35)
  0  0.1774E-03  0  0.1461E-03  0  0.1158E-03  0  0.9215E-04  0  0.7012E-04
   (  4, 35, 35)  (  3, 40, 27)  (  3, 40, 27)  (  3, 40, 27)  (  3, 40, 27)
  0 -0.5609E-04  0 -0.4718E-04  0 -0.4442E-04  0 -0.3567E-04  0 -0.2718E-04
   (  3, 35, 35)  (  3, 35, 35)  (  3, 35, 35)  (  3, 35, 35)  (  3, 35, 35)
  0 -0.2142E-04  0 -0.1961E-04  0 -0.1521E-04  0 -0.1256E-04  0 -0.1036E-04
   (  4, 43,  4)  (  4, 43,  4)  (  4, 44,  2)  (  4, 44,  2)  (  4, 34, 35)
  0 -0.9590E-05  0 -0.8600E-05  0 -0.7777E-05  0 -0.6134E-05  0 -0.4825E-05
   (  4, 34, 35)  (  4, 34, 35)  (  4, 34, 35)  (  4, 34, 35)  (  4, 34, 35)
  0 -0.3740E-05  0 -0.3333E-05  0 -0.2526E-05  0 -0.1826E-05  0 -0.1732E-05
   (  4, 34, 35)  (  4, 34, 35)  (  4, 34, 35)  (  4, 34, 35)  (  4, 34, 35)
  1 -0.1707E-05  0 -0.1613E-05  0 -0.1510E-05  0 -0.1310E-05  0 -0.1100E-05
   (  4, 34, 35)  (  4, 34, 35)  (  4, 34, 35)  (  4, 34, 35)  (  4, 34, 35)
  0 -0.9280E-06  0 -0.7646E-06  0 -0.6016E-06  0 -0.4841E-06  0 -0.3627E-06
   (  4, 34, 35)  (  4, 34, 35)  (  4, 34, 35)  (  4, 34, 35)  (  4, 34, 35)
  0 -0.3353E-06  0  0.2592E-06  0  0.2036E-06  0  0.1584E-06  0  0.1298E-06
   (  4, 34, 35)  (  4, 35, 35)  (  4, 35, 35)  (  4, 35, 35)  (  4, 35, 35)
  0  0.1137E-06  0  0.8860E-07  0  0.6713E-07  0  0.4910E-07  0  0.4392E-07
   (  4, 35, 35)  (  4, 35, 35)  (  4, 35, 35)  (  4, 35, 35)  (  4, 35, 35)
  0  0.3591E-07  0  0.3021E-07  0  0.2416E-07  0  0.1768E-07  0  0.1292E-07
   (  4, 35, 35)  (  4, 35, 35)  (  4, 35, 35)  (  4, 35, 35)  (  4, 35, 35)
  0  0.9606E-08  0  0.8787E-08  1  0.8702E-08
   (  4, 35, 35)  (  4, 35, 35)  (  4, 35, 35)



 OUTPUT CONTROL FOR STRESS PERIOD  120   TIME STEP    3
    SAVE HEAD FOR ALL LAYERS
    SAVE DRAWDOWN FOR ALL LAYERS
    SAVE BUDGET
    PRINT BUDGET
 UBDSV1 SAVING "         STORAGE" ON UNIT   9 AT TIME STEP  3, STRESS PERIOD 120
 UBDSV2 SAVING "   CONSTANT HEAD" ON UNIT   9 AT TIME STEP  3, STRESS PERIOD 120
 UBDSV1 SAVING "FLOW RIGHT FACE " ON UNIT   9 AT TIME STEP  3, STRESS PERIOD 120
 UBDSV1 SAVING "FLOW FRONT FACE " ON UNIT   9 AT TIME STEP  3, STRESS PERIOD 120
 UBDSV1 SAVING "FLOW LOWER FACE " ON UNIT   9 AT TIME STEP  3, STRESS PERIOD 120
 UBDSV3 SAVING "        RECHARGE" ON UNIT   9 AT TIME STEP  3, STRESS PERIOD 120

 HEAD WILL BE SAVED ON UNIT   37 AT END OF TIME STEP    3, STRESS PERIOD  120

 DRAWDOWN WILL BE SAVED ON UNIT   38 AT END OF TIME STEP    3, STRESS PERIOD  120
1
  VOLUMETRIC BUDGET FOR ENTIRE MODEL AT END OF TIME STEP    3, STRESS PERIOD 120
  ------------------------------------------------------------------------------

     CUMULATIVE VOLUMES      L**3       RATES FOR THIS TIME STEP      L**3/T
     ------------------                 ------------------------

           IN:                                      IN:
           ---                                      ---
             STORAGE =       18308.4238               STORAGE =       8.2205E-04
       CONSTANT HEAD =       30934.5449         CONSTANT HEAD =       1.6296E-03
            RECHARGE =        1482.4222              RECHARGE =       1.0213E-04

            TOTAL IN =       50725.3906              TOTAL IN =       2.5538E-03

          OUT:                                     OUT:
          ----                                     ----
             STORAGE =       14996.9971               STORAGE =           0.0000
       CONSTANT HEAD =       35729.9102         CONSTANT HEAD =       2.5540E-03
            RECHARGE =           0.0000              RECHARGE =           0.0000

           TOTAL OUT =       50726.9062             TOTAL OUT =       2.5540E-03

            IN - OUT =          -1.5156              IN - OUT =      -1.9325E-07

 PERCENT DISCREPANCY =          -0.00     PERCENT DISCREPANCY =          -0.01






         TIME SUMMARY AT END OF TIME STEP    3 IN STRESS PERIOD  120
                    SECONDS     MINUTES      HOURS       DAYS        YEARS
                    -----------------------------------------------------------
   TIME STEP LENGTH  86400.      1440.0      24.000      1.0000     2.73785E-03
 STRESS PERIOD TIME 2.59200E+05  4320.0      72.000      3.0000     8.21355E-03
         TOTAL TIME 1.45152E+07 2.41920E+05  4032.0      168.00     0.45996    
1
1
                            STRESS PERIOD NO.  121, LENGTH =   86400.00    
                            -----------------------------------------------

                              NUMBER OF TIME STEPS =     1

                               MULTIPLIER FOR DELT =     1.000

                            INITIAL TIME STEP SIZE =   86400.00    

 REUSING RECH FROM LAST STRESS PERIOD

 CHD NO.   LAYER   ROW   COL    START HEAD        END HEAD         IFACE           
 ----------------------------------------------------------------------------------
      1      4      3      1       110.0           110.0           0.000    
      2      5      3      1       110.0           110.0           0.000    
      3      4      3      2       110.0           110.0           0.000    
      4      5      3      2       110.0           110.0           0.000    
      5      4      3      3       110.0           110.0           0.000    
      6      5      3      3       110.0           110.0           0.000    
      7      4      3      4       110.0           110.0           0.000    
      8      5      3      4       110.0           110.0           0.000    
      9      4      3      5       110.0           110.0           0.000    
     10      5      3      5       110.0           110.0           0.000    
     11      4      3      6       110.0           110.0           0.000    
     12      5      3      6       110.0           110.0           0.000    
     13      4      3      7       110.0           110.0           0.000    
     14      5      3      7       110.0           110.0           0.000    
     15      4      3      8       110.0           110.0           0.000    
     16      5      3      8       110.0           110.0           0.000    
     17      4      2      8       110.0           110.0           0.000    
     18      5      2      8       110.0           110.0           0.000    
     19      4      2      9       110.0           110.0           0.000    
     20      5      2      9       110.0           110.0           0.000    
     21      4      2     10       110.0           110.0           0.000    
     22      5      2     10       110.0           110.0           0.000    
     23      4      2     11       110.0           110.0           0.000    
     24      5      2     11       110.0           110.0           0.000    
     25      4      2     12       110.0           110.0           0.000    
     26      5      2     12       110.0           110.0           0.000    
     27      4      2     13       110.0           110.0           0.000    
     28      5      2     13       110.0           110.0           0.000    
     29      4      2     14       110.0           110.0           0.000    
     30      5      2     14       110.0           110.0           0.000    
     31      4      2     15       110.0           110.0           0.000    
     32      5      2     15       110.0           110.0           0.000    
     33      4      2     16       110.0           110.0           0.000    
     34      5      2     16       110.0           110.0           0.000    
     35      4      2     17       110.0           110.0           0.000    
     36      5      2     17       110.0           110.0           0.000    
     37      4      2     18       110.0           110.0           0.000    
     38      5      2     18       110.0           110.0           0.000    
     39      4      2     19       110.0           110.0           0.000    
     40      5      2     19       110.0           110.0           0.000    
     41      4      2     20       110.0           110.0           0.000    
     42      5      2     20       110.0           110.0           0.000    
     43      4      2     21       110.0           110.0           0.000    
     44      5      2     21       110.0           110.0           0.000    
     45      4      2     22       110.0           110.0           0.000    
     46      5      2     22       110.0           110.0           0.000    
     47      4      2     23       110.0           110.0           0.000    
     48      5      2     23       110.0           110.0           0.000    
     49      4      2     24       110.0           110.0           0.000    
     50      5      2     24       110.0           110.0           0.000    
     51      4      2     25       110.0           110.0           0.000    
     52      5      2     25       110.0           110.0           0.000    
     53      4      2     26       110.0           110.0           0.000    
     54      5      2     26       110.0           110.0           0.000    
     55      4      1     26       110.0           110.0           0.000    
     56      5      1     26       110.0           110.0           0.000    
     57      4      1     27       110.0           110.0           0.000    
     58      5      1     27       110.0           110.0           0.000    
     59      4      1     28       110.0           110.0           0.000    
     60      5      1     28       110.0           110.0           0.000    
     61      4      1     29       110.0           110.0           0.000    
     62      5      1     29       110.0           110.0           0.000    
     63      4      1     30       110.0           110.0           0.000    
     64      5      1     30       110.0           110.0           0.000    
     65      4      1     31       110.0           110.0           0.000    
     66      5      1     31       110.0           110.0           0.000    
     67      4      1     32       110.0           110.0           0.000    
     68      5      1     32       110.0           110.0           0.000    
     69      4      1     33       110.0           110.0           0.000    
     70      5      1     33       110.0           110.0           0.000    
     71      4      1     34       110.0           110.0           0.000    
     72      5      1     34       110.0           110.0           0.000    
     73      4      1     35       110.0           110.0           0.000    
     74      5      1     35       110.0           110.0           0.000    
     75      4     36     35       109.8           109.8           0.000    
     76      5     36     35       109.8           109.8           0.000    
     77      4     35     34       109.8           109.8           0.000    
     78      5     35     34       109.8           109.8           0.000    
     79      4     36     34       109.8           109.8           0.000    
     80      5     36     34       109.8           109.8           0.000    
     81      4     36     33       109.8           109.8           0.000    
     82      5     36     33       109.8           109.8           0.000    
     83      4     36     32       109.8           109.8           0.000    
     84      5     36     32       109.8           109.8           0.000    
     85      4     37     32       109.8           109.8           0.000    
     86      5     37     32       109.8           109.8           0.000    
     87      4     37     31       109.8           109.8           0.000    
     88      5     37     31       109.8           109.8           0.000    
     89      4     38     31       109.8           109.8           0.000    
     90      5     38     31       109.8           109.8           0.000    
     91      4     38     30       109.8           109.8           0.000    
     92      5     38     30       109.8           109.8           0.000    
     93      4     39     30       109.8           109.8           0.000    
     94      5     39     30       109.8           109.8           0.000    
     95      4     39     29       109.8           109.8           0.000    
     96      5     39     29       109.8           109.8           0.000    
     97      4     40     29       109.8           109.8           0.000    
     98      5     40     29       109.8           109.8           0.000    
     99      4     40     28       109.8           109.8           0.000    
    100      5     40     28       109.8           109.8           0.000    
    101      4     40     27       109.8           109.8           0.000    
    102      5     40     27       109.8           109.8           0.000    
    103      4     41     27       109.8           109.8           0.000    
    104      5     41     27       109.8           109.8           0.000    
    105      4     41     26       109.8           109.8           0.000    
    106      5     41     26       109.8           109.8           0.000    
    107      4     41     25       109.8           109.8           0.000    
    108      5     41     25       109.8           109.8           0.000    
    109      4     41     24       109.8           109.8           0.000    
    110      5     41     24       109.8           109.8           0.000    
    111      4     41     23       109.8           109.8           0.000    
    112      5     41     23       109.8           109.8           0.000    
    113      4     41     22       109.8           109.8           0.000    
    114      5     41     22       109.8           109.8           0.000    
    115      4     42     22       109.8           109.8           0.000    
    116      5     42     22       109.8           109.8           0.000    
    117      4     42     21       109.8           109.8           0.000    
    118      5     42     21       109.8           109.8           0.000    
    119      4     42     20       109.8           109.8           0.000    
    120      5     42     20       109.8           109.8           0.000    
    121      4     42     19       109.8           109.8           0.000    
    122      5     42     19       109.8           109.8           0.000    
    123      4     43     18       109.8           109.8           0.000    
    124      5     43     18       109.8           109.8           0.000    
    125      4     42     18       109.8           109.8           0.000    
    126      5     42     18       109.8           109.8           0.000    
    127      4     42     17       109.8           109.8           0.000    
    128      5     42     17       109.8           109.8           0.000    
    129      4     42     16       109.8           109.8           0.000    
    130      5     42     16       109.8           109.8           0.000    
    131      4     42     15       109.8           109.8           0.000    
    132      5     42     15       109.8           109.8           0.000    
    133      4     43     15       109.8           109.8           0.000    
    134      5     43     15       109.8           109.8           0.000    
    135      4     43     14       109.8           109.8           0.000    
    136      5     43     14       109.8           109.8           0.000    
    137      4     43     13       109.8           109.8           0.000    
    138      5     43     13       109.8           109.8           0.000    
    139      4     43     12       109.8           109.8           0.000    
    140      5     43     12       109.8           109.8           0.000    
    141      4     43     11       109.8           109.8           0.000    
    142      5     43     11       109.8           109.8           0.000    
    143      4     43     10       109.8           109.8           0.000    
    144      5     43     10       109.8           109.8           0.000    
    145      4     44     10       109.8           109.8           0.000    
    146      5     44     10       109.8           109.8           0.000    
    147      4     44      9       109.8           109.8           0.000    
    148      5     44      9       109.8           109.8           0.000    
    149      4     44      8       109.8           109.8           0.000    
    150      5     44      8       109.8           109.8           0.000    
    151      4     44      7       109.8           109.8           0.000    
    152      5     44      7       109.8           109.8           0.000    
    153      4     44      6       109.8           109.8           0.000    
    154      5     44      6       109.8           109.8           0.000    
    155      4     44      5       109.8           109.8           0.000    
    156      5     44      5       109.8           109.8           0.000    
    157      4     44      4       109.8           109.8           0.000    
    158      5     44      4       109.8           109.8           0.000    
    159      4     44      3       109.8           109.8           0.000    
    160      5     44      3       109.8           109.8           0.000    
    161      4     45      3       109.8           109.8           0.000    
    162      5     45      3       109.8           109.8           0.000    
    163      4     45      2       109.8           109.8           0.000    
    164      5     45      2       109.8           109.8           0.000    
    165      4     45      1       109.8           109.8           0.000    
    166      5     45      1       109.8           109.8           0.000    


    166 TIME-VARIANT SPECIFIED-HEAD CELLS

 SOLVING FOR HEAD 


     3 CALLS TO PCG ROUTINE FOR TIME STEP   1 IN STRESS PERIOD  121
    56 TOTAL ITERATIONS

 MAXIMUM HEAD CHANGE FOR EACH ITERATION (1 INDICATES THE FIRST INNER ITERATION):

    HEAD CHANGE    HEAD CHANGE    HEAD CHANGE    HEAD CHANGE    HEAD CHANGE 
   LAYER,ROW,COL  LAYER,ROW,COL  LAYER,ROW,COL  LAYER,ROW,COL  LAYER,ROW,COL
 ---------------------------------------------------------------------------
  1 -0.2976E-01  0  0.1544E-01  0  0.1397E-01  0 -0.1110E-01  0 -0.8838E-02
   (  5, 43,  5)  (  5, 34,  1)  (  5, 39,  2)  (  5, 35,  2)  (  5, 37,  1)
  0 -0.8754E-02  0  0.6204E-02  0  0.5649E-02  0  0.4819E-02  0 -0.2798E-02
   (  5, 39,  1)  (  5, 36,  1)  (  5, 34,  6)  (  5, 37,  6)  (  5, 34,  6)
  0 -0.3144E-02  0 -0.2722E-02  0 -0.1473E-02  0  0.2069E-02  0 -0.9880E-03
   (  5, 38,  1)  (  5, 32, 10)  (  5, 32,  2)  (  5, 30,  8)  (  5, 36,  8)
  0 -0.9774E-03  0  0.8433E-03  0  0.7610E-03  0  0.4752E-03  0  0.4886E-03
   (  5, 34,  1)  (  5, 36,  4)  (  5, 15,  1)  (  5, 30,  1)  (  5, 38,  4)
  0 -0.3476E-03  0  0.2588E-03  0 -0.2077E-03  0 -0.3023E-03  0  0.2080E-03
   (  5, 37,  1)  (  5, 32,  3)  (  5, 33,  6)  (  5, 14,  2)  (  5, 13,  1)
  0 -0.1993E-03  0  0.1004E-03  0 -0.1033E-03  0  0.5391E-04  0  0.4977E-04
   (  5, 12,  1)  (  5, 38,  1)  (  5, 36,  1)  (  5, 33,  2)  (  5, 39,  2)
  1 -0.3481E-04  0  0.3227E-04  0  0.3823E-04  0  0.2980E-04  0 -0.4940E-04
   (  5, 31,  2)  (  5, 28,  2)  (  5, 40,  2)  (  5, 33,  3)  (  5, 37,  1)
  0  0.3909E-04  0 -0.2024E-04  0 -0.2013E-04  0 -0.1463E-04  0 -0.1645E-04
   (  5, 39,  4)  (  5, 26,  6)  (  5, 39,  5)  (  5, 25, 10)  (  5, 33,  1)
  0 -0.1153E-04  0  0.5398E-05  0  0.1016E-04  0  0.5694E-05  0 -0.4958E-05
   (  5, 40,  2)  (  5, 32,  2)  (  5, 41,  2)  (  5, 38,  6)  (  5, 31,  9)
  0  0.3538E-05  0 -0.2957E-05  0 -0.3132E-05  0  0.2318E-05  0 -0.1750E-05
   (  5, 33,  1)  (  5, 35,  3)  (  5, 33,  5)  (  5, 34,  8)  (  5, 37,  9)
  0 -0.1092E-05  0  0.1060E-05  0 -0.1466E-05  0 -0.1051E-05  0 -0.6149E-06
   (  5, 36,  3)  (  5, 33,  5)  (  5, 30,  1)  (  5, 36,  6)  (  5, 27, 11)
  1  0.3764E-06
   (  5, 39,  1)

 MAXIMUM RESIDUAL FOR EACH ITERATION (1 INDICATES THE FIRST INNER ITERATION):

    RESIDUAL       RESIDUAL       RESIDUAL       RESIDUAL       RESIDUAL    
   LAYER,ROW,COL  LAYER,ROW,COL  LAYER,ROW,COL  LAYER,ROW,COL  LAYER,ROW,COL
 ---------------------------------------------------------------------------
  1  0.9383E-04  0  0.8194E-04  0  0.7382E-04  0  0.6472E-04  0  0.5546E-04
   (  3,  3,  1)  (  3,  3,  1)  (  3,  3,  1)  (  3,  3,  1)  (  3,  3,  1)
  0 -0.4896E-04  0 -0.4196E-04  0 -0.3318E-04  0 -0.2436E-04  0 -0.1879E-04
   (  3,  4,  4)  (  3,  4,  4)  (  3,  4,  3)  (  3,  4,  3)  (  3,  3,  9)
  0 -0.1538E-04  0 -0.1302E-04  0 -0.1223E-04  0 -0.9597E-05  0 -0.7409E-05
   (  3,  3,  9)  (  3,  3,  9)  (  3,  3,  9)  (  3,  3,  9)  (  3,  3,  9)
  0 -0.6283E-05  0 -0.5434E-05  0 -0.4079E-05  0 -0.3080E-05  0 -0.2743E-05
   (  3,  3,  9)  (  3,  3,  9)  (  3,  3,  9)  (  3,  3,  8)  (  3,  3,  8)
  0 -0.2452E-05  0 -0.2067E-05  0 -0.1933E-05  0 -0.1494E-05  0 -0.1093E-05
   (  3,  3,  7)  (  3,  3,  7)  (  3,  3,  7)  (  3,  3,  7)  (  3,  3,  2)
  0 -0.8217E-06  0 -0.6459E-06  0 -0.5482E-06  0 -0.5041E-06  0 -0.3722E-06
   (  3,  3,  2)  (  3,  3,  2)  (  3,  3,  2)  (  3,  3,  2)  (  3,  3,  2)
  1 -0.3611E-06  0 -0.3485E-06  0 -0.3103E-06  0 -0.2857E-06  0 -0.2578E-06
   (  3,  3,  2)  (  3,  3,  2)  (  3,  3,  2)  (  3,  3,  2)  (  3,  3,  2)
  0 -0.2123E-06  0 -0.1878E-06  0 -0.1413E-06  0 -0.1145E-06  0 -0.8917E-07
   (  3,  3,  2)  (  3,  3,  2)  (  3,  3,  2)  (  3,  3,  2)  (  3,  3,  2)
  0 -0.6799E-07  0 -0.6413E-07  0 -0.4935E-07  0  0.3777E-07  0  0.2890E-07
   (  3,  3,  2)  (  3,  3,  2)  (  3,  3,  2)  (  3,  3,  1)  (  3,  3,  1)
  0  0.2451E-07  0  0.2198E-07  0  0.1573E-07  0  0.1153E-07  0  0.9243E-08
   (  3,  3,  1)  (  3,  3,  1)  (  3,  3,  1)  (  3,  3,  1)  (  3,  3,  1)
  0  0.8420E-08  0  0.7795E-08  0  0.6061E-08  0  0.4510E-08  0  0.3442E-08
   (  3,  3,  1)  (  3,  3,  1)  (  3,  3,  1)  (  3,  3,  1)  (  3,  3,  1)
  1  0.3329E-08
   (  3,  3,  1)



 OUTPUT CONTROL FOR STRESS PERIOD  121   TIME STEP    1
    SAVE HEAD FOR ALL LAYERS
    SAVE DRAWDOWN FOR ALL LAYERS
    SAVE BUDGET
    PRINT BUDGET
 UBDSV1 SAVING "         STORAGE" ON UNIT   9 AT TIME STEP  1, STRESS PERIOD 121
 UBDSV2 SAVING "   CONSTANT HEAD" ON UNIT   9 AT TIME STEP  1, STRESS PERIOD 121
 UBDSV1 SAVING "FLOW RIGHT FACE " ON UNIT   9 AT TIME STEP  1, STRESS PERIOD 121
 UBDSV1 SAVING "FLOW FRONT FACE " ON UNIT   9 AT TIME STEP  1, STRESS PERIOD 121
 UBDSV1 SAVING "FLOW LOWER FACE " ON UNIT   9 AT TIME STEP  1, STRESS PERIOD 121
 UBDSV3 SAVING "        RECHARGE" ON UNIT   9 AT TIME STEP  1, STRESS PERIOD 121

 HEAD WILL BE SAVED ON UNIT   37 AT END OF TIME STEP    1, STRESS PERIOD  121

 DRAWDOWN WILL BE SAVED ON UNIT   38 AT END OF TIME STEP    1, STRESS PERIOD  121
1
  VOLUMETRIC BUDGET FOR ENTIRE MODEL AT END OF TIME STEP    1, STRESS PERIOD 121
  ------------------------------------------------------------------------------

     CUMULATIVE VOLUMES      L**3       RATES FOR THIS TIME STEP      L**3/T
     ------------------                 ------------------------

           IN:                                      IN:
           ---                                      ---
             STORAGE =       18360.4395               STORAGE =       6.0204E-04
       CONSTANT HEAD =       31061.2012         CONSTANT HEAD =       1.4659E-03
            RECHARGE =        1491.2462              RECHARGE =       1.0213E-04

            TOTAL IN =       50912.8867              TOTAL IN =       2.1701E-03

          OUT:                                     OUT:
          ----                                     ----
             STORAGE =       14996.9971               STORAGE =           0.0000
       CONSTANT HEAD =       35917.4141         CONSTANT HEAD =       2.1702E-03
            RECHARGE =           0.0000              RECHARGE =           0.0000

           TOTAL OUT =       50914.4102             TOTAL OUT =       2.1702E-03

            IN - OUT =          -1.5234              IN - OUT =      -9.2434E-08

 PERCENT DISCREPANCY =          -0.00     PERCENT DISCREPANCY =          -0.00






         TIME SUMMARY AT END OF TIME STEP    1 IN STRESS PERIOD  121
                    SECONDS     MINUTES      HOURS       DAYS        YEARS
                    -----------------------------------------------------------
   TIME STEP LENGTH  86400.      1440.0      24.000      1.0000     2.73785E-03
 STRESS PERIOD TIME  86400.      1440.0      24.000      1.0000     2.73785E-03
         TOTAL TIME 1.46016E+07 2.43360E+05  4056.0      169.00     0.46270    
1
1
                            STRESS PERIOD NO.  122, LENGTH =   172800.0    
                            -----------------------------------------------

                              NUMBER OF TIME STEPS =     2

                               MULTIPLIER FOR DELT =     1.000

                            INITIAL TIME STEP SIZE =   86400.00    

 REUSING RECH FROM LAST STRESS PERIOD

 CHD NO.   LAYER   ROW   COL    START HEAD        END HEAD         IFACE           
 ----------------------------------------------------------------------------------
      1      4      3      1       110.0           110.1           0.000    
      2      5      3      1       110.0           110.1           0.000    
      3      4      3      2       110.0           110.1           0.000    
      4      5      3      2       110.0           110.1           0.000    
      5      4      3      3       110.0           110.1           0.000    
      6      5      3      3       110.0           110.1           0.000    
      7      4      3      4       110.0           110.1           0.000    
      8      5      3      4       110.0           110.1           0.000    
      9      4      3      5       110.0           110.1           0.000    
     10      5      3      5       110.0           110.1           0.000    
     11      4      3      6       110.0           110.1           0.000    
     12      5      3      6       110.0           110.1           0.000    
     13      4      3      7       110.0           110.1           0.000    
     14      5      3      7       110.0           110.1           0.000    
     15      4      3      8       110.0           110.1           0.000    
     16      5      3      8       110.0           110.1           0.000    
     17      4      2      8       110.0           110.1           0.000    
     18      5      2      8       110.0           110.1           0.000    
     19      4      2      9       110.0           110.1           0.000    
     20      5      2      9       110.0           110.1           0.000    
     21      4      2     10       110.0           110.1           0.000    
     22      5      2     10       110.0           110.1           0.000    
     23      4      2     11       110.0           110.1           0.000    
     24      5      2     11       110.0           110.1           0.000    
     25      4      2     12       110.0           110.1           0.000    
     26      5      2     12       110.0           110.1           0.000    
     27      4      2     13       110.0           110.1           0.000    
     28      5      2     13       110.0           110.1           0.000    
     29      4      2     14       110.0           110.1           0.000    
     30      5      2     14       110.0           110.1           0.000    
     31      4      2     15       110.0           110.1           0.000    
     32      5      2     15       110.0           110.1           0.000    
     33      4      2     16       110.0           110.1           0.000    
     34      5      2     16       110.0           110.1           0.000    
     35      4      2     17       110.0           110.1           0.000    
     36      5      2     17       110.0           110.1           0.000    
     37      4      2     18       110.0           110.1           0.000    
     38      5      2     18       110.0           110.1           0.000    
     39      4      2     19       110.0           110.1           0.000    
     40      5      2     19       110.0           110.1           0.000    
     41      4      2     20       110.0           110.1           0.000    
     42      5      2     20       110.0           110.1           0.000    
     43      4      2     21       110.0           110.1           0.000    
     44      5      2     21       110.0           110.1           0.000    
     45      4      2     22       110.0           110.1           0.000    
     46      5      2     22       110.0           110.1           0.000    
     47      4      2     23       110.0           110.1           0.000    
     48      5      2     23       110.0           110.1           0.000    
     49      4      2     24       110.0           110.1           0.000    
     50      5      2     24       110.0           110.1           0.000    
     51      4      2     25       110.0           110.1           0.000    
     52      5      2     25       110.0           110.1           0.000    
     53      4      2     26       110.0           110.1           0.000    
     54      5      2     26       110.0           110.1           0.000    
     55      4      1     26       110.0           110.1           0.000    
     56      5      1     26       110.0           110.1           0.000    
     57      4      1     27       110.0           110.1           0.000    
     58      5      1     27       110.0           110.1           0.000    
     59      4      1     28       110.0           110.1           0.000    
     60      5      1     28       110.0           110.1           0.000    
     61      4      1     29       110.0           110.1           0.000    
     62      5      1     29       110.0           110.1           0.000    
     63      4      1     30       110.0           110.1           0.000    
     64      5      1     30       110.0           110.1           0.000    
     65      4      1     31       110.0           110.1           0.000    
     66      5      1     31       110.0           110.1           0.000    
     67      4      1     32       110.0           110.1           0.000    
     68      5      1     32       110.0           110.1           0.000    
     69      4      1     33       110.0           110.1           0.000    
     70      5      1     33       110.0           110.1           0.000    
     71      4      1     34       110.0           110.1           0.000    
     72      5      1     34       110.0           110.1           0.000    
     73      4      1     35       110.0           110.1           0.000    
     74      5      1     35       110.0           110.1           0.000    
     75      4     36     35       109.8           110.1           0.000    
     76      5     36     35       109.8           110.1           0.000    
     77      4     35     34       109.8           110.1           0.000    
     78      5     35     34       109.8           110.1           0.000    
     79      4     36     34       109.8           110.1           0.000    
     80      5     36     34       109.8           110.1           0.000    
     81      4     36     33       109.8           110.1           0.000    
     82      5     36     33       109.8           110.1           0.000    
     83      4     36     32       109.8           110.1           0.000    
     84      5     36     32       109.8           110.1           0.000    
     85      4     37     32       109.8           110.1           0.000    
     86      5     37     32       109.8           110.1           0.000    
     87      4     37     31       109.8           110.1           0.000    
     88      5     37     31       109.8           110.1           0.000    
     89      4     38     31       109.8           110.1           0.000    
     90      5     38     31       109.8           110.1           0.000    
     91      4     38     30       109.8           110.1           0.000    
     92      5     38     30       109.8           110.1           0.000    
     93      4     39     30       109.8           110.1           0.000    
     94      5     39     30       109.8           110.1           0.000    
     95      4     39     29       109.8           110.1           0.000    
     96      5     39     29       109.8           110.1           0.000    
     97      4     40     29       109.8           110.1           0.000    
     98      5     40     29       109.8           110.1           0.000    
     99      4     40     28       109.8           110.1           0.000    
    100      5     40     28       109.8           110.1           0.000    
    101      4     40     27       109.8           110.1           0.000    
    102      5     40     27       109.8           110.1           0.000    
    103      4     41     27       109.8           110.1           0.000    
    104      5     41     27       109.8           110.1           0.000    
    105      4     41     26       109.8           110.1           0.000    
    106      5     41     26       109.8           110.1           0.000    
    107      4     41     25       109.8           110.1           0.000    
    108      5     41     25       109.8           110.1           0.000    
    109      4     41     24       109.8           110.1           0.000    
    110      5     41     24       109.8           110.1           0.000    
    111      4     41     23       109.8           110.1           0.000    
    112      5     41     23       109.8           110.1           0.000    
    113      4     41     22       109.8           110.1           0.000    
    114      5     41     22       109.8           110.1           0.000    
    115      4     42     22       109.8           110.1           0.000    
    116      5     42     22       109.8           110.1           0.000    
    117      4     42     21       109.8           110.1           0.000    
    118      5     42     21       109.8           110.1           0.000    
    119      4     42     20       109.8           110.1           0.000    
    120      5     42     20       109.8           110.1           0.000    
    121      4     42     19       109.8           110.1           0.000    
    122      5     42     19       109.8           110.1           0.000    
    123      4     43     18       109.8           110.1           0.000    
    124      5     43     18       109.8           110.1           0.000    
    125      4     42     18       109.8           110.1           0.000    
    126      5     42     18       109.8           110.1           0.000    
    127      4     42     17       109.8           110.1           0.000    
    128      5     42     17       109.8           110.1           0.000    
    129      4     42     16       109.8           110.1           0.000    
    130      5     42     16       109.8           110.1           0.000    
    131      4     42     15       109.8           110.1           0.000    
    132      5     42     15       109.8           110.1           0.000    
    133      4     43     15       109.8           110.1           0.000    
    134      5     43     15       109.8           110.1           0.000    
    135      4     43     14       109.8           110.1           0.000    
    136      5     43     14       109.8           110.1           0.000    
    137      4     43     13       109.8           110.1           0.000    
    138      5     43     13       109.8           110.1           0.000    
    139      4     43     12       109.8           110.1           0.000    
    140      5     43     12       109.8           110.1           0.000    
    141      4     43     11       109.8           110.1           0.000    
    142      5     43     11       109.8           110.1           0.000    
    143      4     43     10       109.8           110.1           0.000    
    144      5     43     10       109.8           110.1           0.000    
    145      4     44     10       109.8           110.1           0.000    
    146      5     44     10       109.8           110.1           0.000    
    147      4     44      9       109.8           110.1           0.000    
    148      5     44      9       109.8           110.1           0.000    
    149      4     44      8       109.8           110.1           0.000    
    150      5     44      8       109.8           110.1           0.000    
    151      4     44      7       109.8           110.1           0.000    
    152      5     44      7       109.8           110.1           0.000    
    153      4     44      6       109.8           110.1           0.000    
    154      5     44      6       109.8           110.1           0.000    
    155      4     44      5       109.8           110.1           0.000    
    156      5     44      5       109.8           110.1           0.000    
    157      4     44      4       109.8           110.1           0.000    
    158      5     44      4       109.8           110.1           0.000    
    159      4     44      3       109.8           110.1           0.000    
    160      5     44      3       109.8           110.1           0.000    
    161      4     45      3       109.8           110.1           0.000    
    162      5     45      3       109.8           110.1           0.000    
    163      4     45      2       109.8           110.1           0.000    
    164      5     45      2       109.8           110.1           0.000    
    165      4     45      1       109.8           110.1           0.000    
    166      5     45      1       109.8           110.1           0.000    


    166 TIME-VARIANT SPECIFIED-HEAD CELLS

 SOLVING FOR HEAD 


     4 CALLS TO PCG ROUTINE FOR TIME STEP   1 IN STRESS PERIOD  122
    71 TOTAL ITERATIONS

 MAXIMUM HEAD CHANGE FOR EACH ITERATION (1 INDICATES THE FIRST INNER ITERATION):

    HEAD CHANGE    HEAD CHANGE    HEAD CHANGE    HEAD CHANGE    HEAD CHANGE 
   LAYER,ROW,COL  LAYER,ROW,COL  LAYER,ROW,COL  LAYER,ROW,COL  LAYER,ROW,COL
 ---------------------------------------------------------------------------
  1  0.4634      0 -0.2592      0  0.1486      0 -0.1284      0  0.1714    
   (  5, 43,  5)  (  5, 35,  1)  (  5, 30,  2)  (  5, 41,  2)  (  5, 37,  1)
  0  0.9341E-01  0  0.1102      0 -0.1196      0 -0.6821E-01  0 -0.5279E-01
   (  5, 39,  1)  (  5, 40,  1)  (  5, 37,  1)  (  5, 37,  6)  (  5, 40,  1)
  0 -0.4582E-01  0  0.3769E-01  0 -0.2359E-01  0 -0.2688E-01  0  0.2564E-01
   (  5, 35,  9)  (  5, 33,  9)  (  5, 29,  3)  (  5, 31,  9)  (  5, 36,  8)
  0 -0.1282E-01  0  0.1048E-01  0  0.1128E-01  0 -0.8573E-02  0 -0.7228E-02
   (  5, 37,  1)  (  5, 34,  1)  (  5, 31,  9)  (  5, 30, 10)  (  5, 36,  7)
  0  0.4002E-02  0 -0.5160E-02  0  0.3881E-02  0 -0.3464E-02  0 -0.3375E-02
   (  5, 28,  1)  (  5, 32,  4)  (  5, 38,  2)  (  5, 36,  1)  (  5, 13,  1)
  0 -0.2060E-02  0  0.1296E-02  0  0.1117E-02  0 -0.9927E-03  0  0.9692E-03
   (  5, 37,  1)  (  5, 40,  2)  (  5, 34,  4)  (  5, 38,  2)  (  5, 36,  1)
  1 -0.4890E-03  0  0.6530E-03  0 -0.4269E-03  0  0.7430E-03  0  0.5607E-03
   (  5, 29,  2)  (  5, 40,  5)  (  5, 34,  1)  (  5, 35,  3)  (  5, 37,  1)
  0 -0.2858E-03  0  0.2676E-03  0 -0.2712E-03  0  0.2247E-03  0 -0.1811E-03
   (  5, 40,  2)  (  5, 36,  2)  (  5, 37,  1)  (  5, 33,  9)  (  5, 33,  7)
  0  0.1174E-03  0 -0.1693E-03  0  0.1082E-03  0  0.7311E-04  0 -0.7738E-04
   (  5, 27,  1)  (  5, 41,  2)  (  5, 39,  1)  (  5, 34,  3)  (  5, 33,  1)
  0  0.4207E-04  0 -0.5837E-04  0  0.4041E-04  0 -0.3610E-04  0  0.2103E-04
   (  5, 36,  1)  (  5, 39,  1)  (  5, 41,  1)  (  5, 33,  3)  (  5, 30,  4)
  0 -0.1638E-04  0 -0.1834E-04  0  0.1379E-04  0 -0.1043E-04  0 -0.7850E-05
   (  5, 36,  1)  (  5, 35,  1)  (  5, 38,  1)  (  5, 41,  5)  (  5, 38,  5)
  0 -0.9044E-05  0 -0.3788E-05  0  0.4318E-05  0  0.3866E-05  0 -0.4152E-05
   (  5, 38,  1)  (  5, 35,  3)  (  5, 39,  1)  (  5, 34,  4)  (  5, 36,  2)
  1  0.3118E-05  0 -0.1970E-05  0 -0.1901E-05  0 -0.1713E-05  0  0.2954E-05
   (  5, 35,  1)  (  5, 33,  4)  (  5, 40,  3)  (  5, 29,  5)  (  5, 40,  1)
  0 -0.2873E-05  0  0.1471E-05  0 -0.1187E-05  0  0.1338E-05  0 -0.7665E-06
   (  5, 38,  1)  (  5, 36,  1)  (  5, 39,  5)  (  5, 27, 11)  (  5, 26, 13)
  1 -0.5532E-06
   (  5, 37,  7)

 MAXIMUM RESIDUAL FOR EACH ITERATION (1 INDICATES THE FIRST INNER ITERATION):

    RESIDUAL       RESIDUAL       RESIDUAL       RESIDUAL       RESIDUAL    
   LAYER,ROW,COL  LAYER,ROW,COL  LAYER,ROW,COL  LAYER,ROW,COL  LAYER,ROW,COL
 ---------------------------------------------------------------------------
  1 -0.2223E-02  0 -0.1678E-02  0 -0.1409E-02  0 -0.1250E-02  0 -0.1049E-02
   (  4, 44,  2)  (  4, 44,  2)  (  4, 44,  2)  (  4, 35, 35)  (  4, 35, 35)
  0 -0.8900E-03  0 -0.7514E-03  0 -0.5974E-03  0 -0.4773E-03  0 -0.3630E-03
   (  3, 40, 27)  (  3, 40, 27)  (  3, 40, 27)  (  3, 40, 27)  (  3, 40, 27)
  0  0.2847E-03  0  0.2449E-03  0  0.2216E-03  0  0.1754E-03  0  0.1355E-03
   (  4, 43,  4)  (  4, 43,  4)  (  4, 43,  4)  (  3, 35, 35)  (  3, 35, 35)
  0  0.1106E-03  0  0.9980E-04  0  0.8074E-04  0  0.6602E-04  0  0.5159E-04
   (  4, 43,  4)  (  4, 44,  2)  (  4, 44,  2)  (  4, 44,  2)  (  4, 34, 35)
  0  0.4798E-04  0  0.4113E-04  0  0.3544E-04  0  0.3113E-04  0  0.2492E-04
   (  4, 34, 35)  (  4, 34, 35)  (  4, 34, 35)  (  4, 34, 35)  (  4, 34, 35)
  0  0.1940E-04  0  0.1706E-04  0  0.1434E-04  0  0.1291E-04  0  0.9600E-05
   (  4, 34, 35)  (  4, 34, 35)  (  4, 34, 35)  (  4, 34, 35)  (  4, 34, 35)
  1  0.9559E-05  0  0.8626E-05  0  0.8253E-05  0  0.6676E-05  0  0.5854E-05
   (  4, 34, 35)  (  4, 34, 35)  (  4, 34, 35)  (  4, 34, 35)  (  4, 34, 35)
  0  0.4289E-05  0  0.3625E-05  0  0.3025E-05  0  0.2467E-05  0  0.2117E-05
   (  4, 34, 35)  (  4, 34, 35)  (  4, 34, 35)  (  4, 34, 35)  (  4, 34, 35)
  0  0.1956E-05  0  0.1531E-05  0  0.1157E-05  0  0.9292E-06  0 -0.7195E-06
   (  4, 34, 35)  (  4, 34, 35)  (  4, 34, 35)  (  4, 34, 35)  (  4, 35, 35)
  0 -0.6649E-06  0 -0.4873E-06  0 -0.3776E-06  0 -0.3029E-06  0 -0.2716E-06
   (  4, 35, 35)  (  4, 35, 35)  (  4, 35, 35)  (  4, 35, 35)  (  4, 35, 35)
  0 -0.1980E-06  0 -0.1528E-06  0 -0.1329E-06  0 -0.1031E-06  0 -0.7763E-07
   (  4, 35, 35)  (  4, 35, 35)  (  4, 35, 35)  (  4, 35, 35)  (  4, 35, 35)
  0 -0.5917E-07  0 -0.5357E-07  0 -0.4566E-07  0 -0.3982E-07  0 -0.3220E-07
   (  4, 35, 35)  (  4, 35, 35)  (  4, 35, 35)  (  4, 35, 35)  (  4, 35, 35)
  1 -0.3139E-07  0 -0.3087E-07  0 -0.2944E-07  0 -0.2777E-07  0 -0.2328E-07
   (  4, 35, 35)  (  4, 35, 35)  (  4, 35, 35)  (  4, 35, 35)  (  4, 35, 35)
  0 -0.1768E-07  0 -0.1478E-07  0 -0.1246E-07  0 -0.9688E-08  0 -0.7482E-08
   (  4, 35, 35)  (  4, 35, 35)  (  4, 35, 35)  (  4, 35, 35)  (  4, 35, 35)
  1 -0.7206E-08
   (  4, 35, 35)



 OUTPUT CONTROL FOR STRESS PERIOD  122   TIME STEP    1
    SAVE HEAD FOR ALL LAYERS
    SAVE DRAWDOWN FOR ALL LAYERS
    SAVE BUDGET
    PRINT BUDGET
 UBDSV1 SAVING "         STORAGE" ON UNIT   9 AT TIME STEP  1, STRESS PERIOD 122
 UBDSV2 SAVING "   CONSTANT HEAD" ON UNIT   9 AT TIME STEP  1, STRESS PERIOD 122
 UBDSV1 SAVING "FLOW RIGHT FACE " ON UNIT   9 AT TIME STEP  1, STRESS PERIOD 122
 UBDSV1 SAVING "FLOW FRONT FACE " ON UNIT   9 AT TIME STEP  1, STRESS PERIOD 122
 UBDSV1 SAVING "FLOW LOWER FACE " ON UNIT   9 AT TIME STEP  1, STRESS PERIOD 122
 UBDSV3 SAVING "        RECHARGE" ON UNIT   9 AT TIME STEP  1, STRESS PERIOD 122

 HEAD WILL BE SAVED ON UNIT   37 AT END OF TIME STEP    1, STRESS PERIOD  122

 DRAWDOWN WILL BE SAVED ON UNIT   38 AT END OF TIME STEP    1, STRESS PERIOD  122
1
  VOLUMETRIC BUDGET FOR ENTIRE MODEL AT END OF TIME STEP    1, STRESS PERIOD 122
  ------------------------------------------------------------------------------

     CUMULATIVE VOLUMES      L**3       RATES FOR THIS TIME STEP      L**3/T
     ------------------                 ------------------------

           IN:                                      IN:
           ---                                      ---
             STORAGE =       18360.4395               STORAGE =           0.0000
       CONSTANT HEAD =       31332.0391         CONSTANT HEAD =       3.1347E-03
            RECHARGE =        1500.0702              RECHARGE =       1.0213E-04

            TOTAL IN =       51192.5469              TOTAL IN =       3.2368E-03

          OUT:                                     OUT:
          ----                                     ----
             STORAGE =       15269.4668               STORAGE =       3.1536E-03
       CONSTANT HEAD =       35924.6094         CONSTANT HEAD =       8.3261E-05
            RECHARGE =           0.0000              RECHARGE =           0.0000

           TOTAL OUT =       51194.0781             TOTAL OUT =       3.2368E-03

            IN - OUT =          -1.5312              IN - OUT =      -1.6531E-08

 PERCENT DISCREPANCY =          -0.00     PERCENT DISCREPANCY =          -0.00






         TIME SUMMARY AT END OF TIME STEP    1 IN STRESS PERIOD  122
                    SECONDS     MINUTES      HOURS       DAYS        YEARS
                    -----------------------------------------------------------
   TIME STEP LENGTH  86400.      1440.0      24.000      1.0000     2.73785E-03
 STRESS PERIOD TIME  86400.      1440.0      24.000      1.0000     2.73785E-03
         TOTAL TIME 1.46880E+07 2.44800E+05  4080.0      170.00     0.46543    
1

 SOLVING FOR HEAD 
     4 CALLS TO PCG ROUTINE FOR TIME STEP   2 IN STRESS PERIOD  122
    71 TOTAL ITERATIONS

 MAXIMUM HEAD CHANGE FOR EACH ITERATION (1 INDICATES THE FIRST INNER ITERATION):

    HEAD CHANGE    HEAD CHANGE    HEAD CHANGE    HEAD CHANGE    HEAD CHANGE 
   LAYER,ROW,COL  LAYER,ROW,COL  LAYER,ROW,COL  LAYER,ROW,COL  LAYER,ROW,COL
 ---------------------------------------------------------------------------
  1  0.4774      0 -0.2572      0  0.1485      0 -0.1318      0  0.1645    
   (  5, 43,  5)  (  5, 35,  1)  (  5, 30,  2)  (  5, 41,  2)  (  5, 37,  1)
  0  0.9886E-01  0  0.1113      0 -0.1197      0 -0.6787E-01  0 -0.5380E-01
   (  5, 39,  1)  (  5, 40,  1)  (  5, 37,  1)  (  5, 37,  6)  (  5, 40,  1)
  0 -0.4753E-01  0 -0.2595E-01  0  0.3118E-01  0 -0.2988E-01  0  0.2192E-01
   (  5, 35,  9)  (  5, 28,  2)  (  5, 33,  9)  (  5, 30,  9)  (  5, 36,  9)
  0  0.1329E-01  0 -0.1215E-01  0 -0.1056E-01  0 -0.7619E-02  0 -0.7954E-02
   (  5, 34,  1)  (  5, 37,  1)  (  5, 15,  1)  (  5, 30, 10)  (  5, 36,  7)
  0  0.3358E-02  0 -0.5115E-02  0 -0.3909E-02  0  0.3101E-02  0 -0.3374E-02
   (  5, 28,  1)  (  5, 32,  4)  (  5, 35,  1)  (  5, 38,  2)  (  5, 13,  1)
  0  0.2160E-02  0 -0.1836E-02  0  0.9659E-03  0  0.9994E-03  0 -0.6873E-03
   (  5, 40,  2)  (  5, 37,  1)  (  5, 34,  4)  (  5, 40,  2)  (  5, 31,  4)
  1  0.6297E-03  0  0.8461E-03  0 -0.5771E-03  0  0.1069E-02  0 -0.9115E-03
   (  5, 30,  2)  (  5, 12,  1)  (  5, 33,  1)  (  5, 37,  1)  (  5, 39,  1)
  0  0.7099E-03  0 -0.4418E-03  0  0.3050E-03  0  0.2915E-03  0  0.1698E-03
   (  5, 13,  1)  (  5, 30, 10)  (  5, 37,  3)  (  5, 33, 10)  (  5, 30,  3)
  0 -0.1300E-03  0 -0.1537E-03  0  0.1318E-03  0 -0.1333E-03  0  0.8385E-04
   (  5, 34,  4)  (  5, 15,  1)  (  5, 39,  2)  (  5, 41,  2)  (  5, 36,  1)
  0 -0.5774E-04  0 -0.6370E-04  0 -0.5619E-04  0 -0.3859E-04  0  0.3147E-04
   (  5, 36,  3)  (  5, 34,  8)  (  5, 39,  1)  (  5, 36,  5)  (  5, 31,  1)
  0  0.2852E-04  0  0.3907E-04  0 -0.1467E-04  0  0.2202E-04  0  0.1422E-04
   (  5, 32,  8)  (  5, 38,  1)  (  5, 40,  1)  (  5, 36,  2)  (  5, 42,  2)
  0 -0.9806E-05  0 -0.6784E-05  0  0.4740E-05  0 -0.5039E-05  0  0.3333E-05
   (  5, 37,  1)  (  5, 43,  7)  (  5, 36,  2)  (  5, 31,  1)  (  5, 28,  3)
  1 -0.2889E-05  0  0.2893E-05  0 -0.2757E-05  0  0.3269E-05  0  0.4035E-05
   (  5, 30,  5)  (  5, 32,  2)  (  5, 33,  1)  (  5, 38,  4)  (  5, 38,  2)
  0 -0.2885E-05  0  0.1628E-05  0 -0.1942E-05  0 -0.1341E-05  0  0.9559E-06
   (  5, 40,  4)  (  5, 37,  5)  (  5, 35,  1)  (  5, 37,  6)  (  5, 33,  1)
  1  0.6937E-06
   (  5, 30,  3)

 MAXIMUM RESIDUAL FOR EACH ITERATION (1 INDICATES THE FIRST INNER ITERATION):

    RESIDUAL       RESIDUAL       RESIDUAL       RESIDUAL       RESIDUAL    
   LAYER,ROW,COL  LAYER,ROW,COL  LAYER,ROW,COL  LAYER,ROW,COL  LAYER,ROW,COL
 ---------------------------------------------------------------------------
  1 -0.2168E-02  0 -0.1631E-02  0 -0.1412E-02  0 -0.1276E-02  0 -0.1078E-02
   (  4, 44,  2)  (  4, 44,  2)  (  4, 35, 35)  (  4, 35, 35)  (  4, 35, 35)
  0 -0.9059E-03  0 -0.7516E-03  0 -0.5939E-03  0 -0.4714E-03  0 -0.3572E-03
   (  4, 35, 35)  (  3, 40, 27)  (  3, 40, 27)  (  3, 40, 27)  (  3, 40, 27)
  0  0.2897E-03  0  0.2577E-03  0  0.2291E-03  0  0.1835E-03  0  0.1421E-03
   (  3, 35, 35)  (  3, 35, 35)  (  3, 35, 35)  (  3, 35, 35)  (  4, 43,  4)
  0  0.1280E-03  0  0.1045E-03  0  0.8235E-04  0  0.6746E-04  0  0.5194E-04
   (  4, 43,  4)  (  4, 43,  4)  (  4, 44,  2)  (  4, 44,  2)  (  4, 34, 35)
  0  0.5016E-04  0  0.4151E-04  0  0.3495E-04  0  0.3135E-04  0  0.2490E-04
   (  4, 34, 35)  (  4, 34, 35)  (  4, 34, 35)  (  4, 34, 35)  (  4, 34, 35)
  0  0.1989E-04  0  0.1799E-04  0  0.1659E-04  0  0.1273E-04  0  0.1168E-04
   (  4, 34, 35)  (  4, 34, 35)  (  4, 34, 35)  (  4, 34, 35)  (  4, 34, 35)
  1  0.1162E-04  0  0.1036E-04  0  0.9782E-05  0  0.8577E-05  0  0.6937E-05
   (  4, 34, 35)  (  4, 34, 35)  (  4, 34, 35)  (  4, 34, 35)  (  4, 34, 35)
  0  0.5348E-05  0  0.4467E-05  0  0.3913E-05  0  0.3258E-05  0  0.2809E-05
   (  4, 34, 35)  (  4, 34, 35)  (  4, 34, 35)  (  4, 34, 35)  (  4, 34, 35)
  0  0.2630E-05  0  0.2106E-05  0  0.1690E-05  0  0.1309E-05  0  0.9547E-06
   (  4, 34, 35)  (  4, 34, 35)  (  4, 34, 35)  (  4, 34, 35)  (  4, 34, 35)
  0 -0.8781E-06  0 -0.6790E-06  0 -0.4893E-06  0 -0.3841E-06  0 -0.3451E-06
   (  4, 35, 35)  (  4, 35, 35)  (  4, 35, 35)  (  4, 35, 35)  (  4, 35, 35)
  0 -0.2574E-06  0 -0.1990E-06  0 -0.1786E-06  0 -0.1419E-06  0 -0.1068E-06
   (  4, 35, 35)  (  4, 35, 35)  (  4, 35, 35)  (  4, 35, 35)  (  4, 35, 35)
  0 -0.9203E-07  0 -0.5764E-07  0 -0.5174E-07  0 -0.4132E-07  0 -0.3719E-07
   (  4, 35, 35)  (  4, 35, 35)  (  4, 35, 35)  (  4, 35, 35)  (  4, 35, 35)
  1 -0.3649E-07  0 -0.3547E-07  0 -0.3434E-07  0 -0.2964E-07  0 -0.2567E-07
   (  4, 35, 35)  (  4, 35, 35)  (  4, 35, 35)  (  4, 35, 35)  (  4, 35, 35)
  0 -0.2100E-07  0 -0.1835E-07  0 -0.1461E-07  0 -0.1204E-07  0 -0.9892E-08
   (  4, 35, 35)  (  4, 35, 35)  (  4, 35, 35)  (  4, 35, 35)  (  4, 35, 35)
  1 -0.9771E-08
   (  4, 35, 35)



 OUTPUT CONTROL FOR STRESS PERIOD  122   TIME STEP    2
    SAVE HEAD FOR ALL LAYERS
    SAVE DRAWDOWN FOR ALL LAYERS
    SAVE BUDGET
    PRINT BUDGET
 UBDSV1 SAVING "         STORAGE" ON UNIT   9 AT TIME STEP  2, STRESS PERIOD 122
 UBDSV2 SAVING "   CONSTANT HEAD" ON UNIT   9 AT TIME STEP  2, STRESS PERIOD 122
 UBDSV1 SAVING "FLOW RIGHT FACE " ON UNIT   9 AT TIME STEP  2, STRESS PERIOD 122
 UBDSV1 SAVING "FLOW FRONT FACE " ON UNIT   9 AT TIME STEP  2, STRESS PERIOD 122
 UBDSV1 SAVING "FLOW LOWER FACE " ON UNIT   9 AT TIME STEP  2, STRESS PERIOD 122
 UBDSV3 SAVING "        RECHARGE" ON UNIT   9 AT TIME STEP  2, STRESS PERIOD 122

 HEAD WILL BE SAVED ON UNIT   37 AT END OF TIME STEP    2, STRESS PERIOD  122

 DRAWDOWN WILL BE SAVED ON UNIT   38 AT END OF TIME STEP    2, STRESS PERIOD  122
1
  VOLUMETRIC BUDGET FOR ENTIRE MODEL AT END OF TIME STEP    2, STRESS PERIOD 122
  ------------------------------------------------------------------------------

     CUMULATIVE VOLUMES      L**3       RATES FOR THIS TIME STEP      L**3/T
     ------------------                 ------------------------

           IN:                                      IN:
           ---                                      ---
             STORAGE =       18360.4395               STORAGE =           0.0000
       CONSTANT HEAD =       31682.3008         CONSTANT HEAD =       4.0540E-03
            RECHARGE =        1508.8942              RECHARGE =       1.0213E-04

            TOTAL IN =       51551.6367              TOTAL IN =       4.1561E-03

          OUT:                                     OUT:
          ----                                     ----
             STORAGE =       15628.1699               STORAGE =       4.1517E-03
       CONSTANT HEAD =       35924.9922         CONSTANT HEAD =       4.4207E-06
            RECHARGE =           0.0000              RECHARGE =           0.0000

           TOTAL OUT =       51553.1641             TOTAL OUT =       4.1561E-03

            IN - OUT =          -1.5273              IN - OUT =       8.3819E-09

 PERCENT DISCREPANCY =          -0.00     PERCENT DISCREPANCY =           0.00






         TIME SUMMARY AT END OF TIME STEP    2 IN STRESS PERIOD  122
                    SECONDS     MINUTES      HOURS       DAYS        YEARS
                    -----------------------------------------------------------
   TIME STEP LENGTH  86400.      1440.0      24.000      1.0000     2.73785E-03
 STRESS PERIOD TIME 1.72800E+05  2880.0      48.000      2.0000     5.47570E-03
         TOTAL TIME 1.47744E+07 2.46240E+05  4104.0      171.00     0.46817    
1
1
                            STRESS PERIOD NO.  123, LENGTH =   86400.00    
                            -----------------------------------------------

                              NUMBER OF TIME STEPS =     1

                               MULTIPLIER FOR DELT =     1.000

                            INITIAL TIME STEP SIZE =   86400.00    

 REUSING RECH FROM LAST STRESS PERIOD

 CHD NO.   LAYER   ROW   COL    START HEAD        END HEAD         IFACE           
 ----------------------------------------------------------------------------------
      1      4      3      1       110.1           110.1           0.000    
      2      5      3      1       110.1           110.1           0.000    
      3      4      3      2       110.1           110.1           0.000    
      4      5      3      2       110.1           110.1           0.000    
      5      4      3      3       110.1           110.1           0.000    
      6      5      3      3       110.1           110.1           0.000    
      7      4      3      4       110.1           110.1           0.000    
      8      5      3      4       110.1           110.1           0.000    
      9      4      3      5       110.1           110.1           0.000    
     10      5      3      5       110.1           110.1           0.000    
     11      4      3      6       110.1           110.1           0.000    
     12      5      3      6       110.1           110.1           0.000    
     13      4      3      7       110.1           110.1           0.000    
     14      5      3      7       110.1           110.1           0.000    
     15      4      3      8       110.1           110.1           0.000    
     16      5      3      8       110.1           110.1           0.000    
     17      4      2      8       110.1           110.1           0.000    
     18      5      2      8       110.1           110.1           0.000    
     19      4      2      9       110.1           110.1           0.000    
     20      5      2      9       110.1           110.1           0.000    
     21      4      2     10       110.1           110.1           0.000    
     22      5      2     10       110.1           110.1           0.000    
     23      4      2     11       110.1           110.1           0.000    
     24      5      2     11       110.1           110.1           0.000    
     25      4      2     12       110.1           110.1           0.000    
     26      5      2     12       110.1           110.1           0.000    
     27      4      2     13       110.1           110.1           0.000    
     28      5      2     13       110.1           110.1           0.000    
     29      4      2     14       110.1           110.1           0.000    
     30      5      2     14       110.1           110.1           0.000    
     31      4      2     15       110.1           110.1           0.000    
     32      5      2     15       110.1           110.1           0.000    
     33      4      2     16       110.1           110.1           0.000    
     34      5      2     16       110.1           110.1           0.000    
     35      4      2     17       110.1           110.1           0.000    
     36      5      2     17       110.1           110.1           0.000    
     37      4      2     18       110.1           110.1           0.000    
     38      5      2     18       110.1           110.1           0.000    
     39      4      2     19       110.1           110.1           0.000    
     40      5      2     19       110.1           110.1           0.000    
     41      4      2     20       110.1           110.1           0.000    
     42      5      2     20       110.1           110.1           0.000    
     43      4      2     21       110.1           110.1           0.000    
     44      5      2     21       110.1           110.1           0.000    
     45      4      2     22       110.1           110.1           0.000    
     46      5      2     22       110.1           110.1           0.000    
     47      4      2     23       110.1           110.1           0.000    
     48      5      2     23       110.1           110.1           0.000    
     49      4      2     24       110.1           110.1           0.000    
     50      5      2     24       110.1           110.1           0.000    
     51      4      2     25       110.1           110.1           0.000    
     52      5      2     25       110.1           110.1           0.000    
     53      4      2     26       110.1           110.1           0.000    
     54      5      2     26       110.1           110.1           0.000    
     55      4      1     26       110.1           110.1           0.000    
     56      5      1     26       110.1           110.1           0.000    
     57      4      1     27       110.1           110.1           0.000    
     58      5      1     27       110.1           110.1           0.000    
     59      4      1     28       110.1           110.1           0.000    
     60      5      1     28       110.1           110.1           0.000    
     61      4      1     29       110.1           110.1           0.000    
     62      5      1     29       110.1           110.1           0.000    
     63      4      1     30       110.1           110.1           0.000    
     64      5      1     30       110.1           110.1           0.000    
     65      4      1     31       110.1           110.1           0.000    
     66      5      1     31       110.1           110.1           0.000    
     67      4      1     32       110.1           110.1           0.000    
     68      5      1     32       110.1           110.1           0.000    
     69      4      1     33       110.1           110.1           0.000    
     70      5      1     33       110.1           110.1           0.000    
     71      4      1     34       110.1           110.1           0.000    
     72      5      1     34       110.1           110.1           0.000    
     73      4      1     35       110.1           110.1           0.000    
     74      5      1     35       110.1           110.1           0.000    
     75      4     36     35       110.1           110.2           0.000    
     76      5     36     35       110.1           110.2           0.000    
     77      4     35     34       110.1           110.2           0.000    
     78      5     35     34       110.1           110.2           0.000    
     79      4     36     34       110.1           110.2           0.000    
     80      5     36     34       110.1           110.2           0.000    
     81      4     36     33       110.1           110.2           0.000    
     82      5     36     33       110.1           110.2           0.000    
     83      4     36     32       110.1           110.2           0.000    
     84      5     36     32       110.1           110.2           0.000    
     85      4     37     32       110.1           110.2           0.000    
     86      5     37     32       110.1           110.2           0.000    
     87      4     37     31       110.1           110.2           0.000    
     88      5     37     31       110.1           110.2           0.000    
     89      4     38     31       110.1           110.2           0.000    
     90      5     38     31       110.1           110.2           0.000    
     91      4     38     30       110.1           110.2           0.000    
     92      5     38     30       110.1           110.2           0.000    
     93      4     39     30       110.1           110.2           0.000    
     94      5     39     30       110.1           110.2           0.000    
     95      4     39     29       110.1           110.2           0.000    
     96      5     39     29       110.1           110.2           0.000    
     97      4     40     29       110.1           110.2           0.000    
     98      5     40     29       110.1           110.2           0.000    
     99      4     40     28       110.1           110.2           0.000    
    100      5     40     28       110.1           110.2           0.000    
    101      4     40     27       110.1           110.2           0.000    
    102      5     40     27       110.1           110.2           0.000    
    103      4     41     27       110.1           110.2           0.000    
    104      5     41     27       110.1           110.2           0.000    
    105      4     41     26       110.1           110.2           0.000    
    106      5     41     26       110.1           110.2           0.000    
    107      4     41     25       110.1           110.2           0.000    
    108      5     41     25       110.1           110.2           0.000    
    109      4     41     24       110.1           110.2           0.000    
    110      5     41     24       110.1           110.2           0.000    
    111      4     41     23       110.1           110.2           0.000    
    112      5     41     23       110.1           110.2           0.000    
    113      4     41     22       110.1           110.2           0.000    
    114      5     41     22       110.1           110.2           0.000    
    115      4     42     22       110.1           110.2           0.000    
    116      5     42     22       110.1           110.2           0.000    
    117      4     42     21       110.1           110.2           0.000    
    118      5     42     21       110.1           110.2           0.000    
    119      4     42     20       110.1           110.2           0.000    
    120      5     42     20       110.1           110.2           0.000    
    121      4     42     19       110.1           110.2           0.000    
    122      5     42     19       110.1           110.2           0.000    
    123      4     43     18       110.1           110.2           0.000    
    124      5     43     18       110.1           110.2           0.000    
    125      4     42     18       110.1           110.2           0.000    
    126      5     42     18       110.1           110.2           0.000    
    127      4     42     17       110.1           110.2           0.000    
    128      5     42     17       110.1           110.2           0.000    
    129      4     42     16       110.1           110.2           0.000    
    130      5     42     16       110.1           110.2           0.000    
    131      4     42     15       110.1           110.2           0.000    
    132      5     42     15       110.1           110.2           0.000    
    133      4     43     15       110.1           110.2           0.000    
    134      5     43     15       110.1           110.2           0.000    
    135      4     43     14       110.1           110.2           0.000    
    136      5     43     14       110.1           110.2           0.000    
    137      4     43     13       110.1           110.2           0.000    
    138      5     43     13       110.1           110.2           0.000    
    139      4     43     12       110.1           110.2           0.000    
    140      5     43     12       110.1           110.2           0.000    
    141      4     43     11       110.1           110.1           0.000    
    142      5     43     11       110.1           110.1           0.000    
    143      4     43     10       110.1           110.1           0.000    
    144      5     43     10       110.1           110.1           0.000    
    145      4     44     10       110.1           110.1           0.000    
    146      5     44     10       110.1           110.1           0.000    
    147      4     44      9       110.1           110.1           0.000    
    148      5     44      9       110.1           110.1           0.000    
    149      4     44      8       110.1           110.1           0.000    
    150      5     44      8       110.1           110.1           0.000    
    151      4     44      7       110.1           110.1           0.000    
    152      5     44      7       110.1           110.1           0.000    
    153      4     44      6       110.1           110.1           0.000    
    154      5     44      6       110.1           110.1           0.000    
    155      4     44      5       110.1           110.1           0.000    
    156      5     44      5       110.1           110.1           0.000    
    157      4     44      4       110.1           110.1           0.000    
    158      5     44      4       110.1           110.1           0.000    
    159      4     44      3       110.1           110.1           0.000    
    160      5     44      3       110.1           110.1           0.000    
    161      4     45      3       110.1           110.1           0.000    
    162      5     45      3       110.1           110.1           0.000    
    163      4     45      2       110.1           110.1           0.000    
    164      5     45      2       110.1           110.1           0.000    
    165      4     45      1       110.1           110.1           0.000    
    166      5     45      1       110.1           110.1           0.000    


    166 TIME-VARIANT SPECIFIED-HEAD CELLS

 SOLVING FOR HEAD 


     4 CALLS TO PCG ROUTINE FOR TIME STEP   1 IN STRESS PERIOD  123
    68 TOTAL ITERATIONS

 MAXIMUM HEAD CHANGE FOR EACH ITERATION (1 INDICATES THE FIRST INNER ITERATION):

    HEAD CHANGE    HEAD CHANGE    HEAD CHANGE    HEAD CHANGE    HEAD CHANGE 
   LAYER,ROW,COL  LAYER,ROW,COL  LAYER,ROW,COL  LAYER,ROW,COL  LAYER,ROW,COL
 ---------------------------------------------------------------------------
  1  0.2572      0 -0.1324      0 -0.8379E-01  0 -0.7013E-01  0  0.8106E-01
   (  5, 43,  5)  (  5, 35,  1)  (  5, 39,  2)  (  5, 41,  2)  (  5, 37,  1)
  0  0.5823E-01  0  0.5635E-01  0 -0.5998E-01  0 -0.3567E-01  0 -0.2770E-01
   (  5, 39,  1)  (  5, 40,  1)  (  5, 37,  1)  (  5, 37,  6)  (  5, 40,  1)
  0 -0.2742E-01  0  0.2650E-01  0 -0.1024E-01  0 -0.1494E-01  0  0.1075E-01
   (  5, 35,  9)  (  5, 32,  9)  (  5, 30,  3)  (  5, 30,  9)  (  5, 36,  8)
  0 -0.6937E-02  0  0.5779E-02  0 -0.5978E-02  0  0.4103E-02  0 -0.4350E-02
   (  5, 37,  1)  (  5, 34,  1)  (  5, 36,  4)  (  5, 38,  7)  (  5, 38,  4)
  0  0.3255E-02  0  0.2699E-02  0 -0.1651E-02  0  0.2247E-02  0 -0.1780E-02
   (  5, 37,  1)  (  5, 33,  7)  (  5, 32,  3)  (  5, 13,  1)  (  5, 13,  1)
  0  0.9984E-03  0 -0.7374E-03  0 -0.6821E-03  0  0.4520E-03  0  0.3653E-03
   (  5, 12,  1)  (  5, 38,  1)  (  5, 35,  3)  (  5, 35,  1)  (  5, 41,  2)
  1 -0.2173E-03  0  0.3497E-03  0 -0.3429E-03  0  0.2487E-03  0  0.2025E-03
   (  5, 27,  1)  (  5, 33,  6)  (  5, 38,  4)  (  5, 37,  1)  (  5, 29,  6)
  0 -0.2106E-03  0  0.1571E-03  0  0.9637E-04  0  0.1076E-03  0 -0.9676E-04
   (  5, 39,  2)  (  5, 36,  2)  (  5, 33,  8)  (  5, 34,  1)  (  5, 34,  7)
  0  0.4756E-04  0 -0.7515E-04  0  0.6376E-04  0 -0.3904E-04  0  0.3408E-04
   (  5, 30,  3)  (  5, 41,  1)  (  5, 39,  1)  (  5, 40,  4)  (  5, 37,  1)
  0 -0.2551E-04  0 -0.1990E-04  0 -0.2442E-04  0  0.2123E-04  0  0.8232E-05
   (  5, 29,  9)  (  5, 37,  4)  (  5, 34,  8)  (  5, 38,  8)  (  5, 30,  3)
  0 -0.1112E-04  0  0.1004E-04  0 -0.5371E-05  0  0.5898E-05  0 -0.5059E-05
   (  5, 37,  6)  (  5, 39,  1)  (  5, 36,  1)  (  5, 37,  2)  (  5, 38,  5)
  0 -0.5105E-05  0  0.3513E-05  0 -0.2430E-05  0  0.2114E-05  0 -0.1762E-05
   (  5, 40,  2)  (  5, 40,  1)  (  5, 36,  2)  (  5, 33,  3)  (  5, 26,  3)
  1  0.1438E-05  0 -0.1030E-05  0  0.1005E-05  0 -0.1010E-05  0  0.1431E-05
   (  5, 29,  5)  (  5, 33,  3)  (  5, 36,  1)  (  5, 41,  4)  (  5, 40,  1)
  0 -0.1169E-05  0 -0.6107E-06  1 -0.3762E-06
   (  5, 38,  1)  (  5, 13,  2)  (  5, 40,  4)

 MAXIMUM RESIDUAL FOR EACH ITERATION (1 INDICATES THE FIRST INNER ITERATION):

    RESIDUAL       RESIDUAL       RESIDUAL       RESIDUAL       RESIDUAL    
   LAYER,ROW,COL  LAYER,ROW,COL  LAYER,ROW,COL  LAYER,ROW,COL  LAYER,ROW,COL
 ---------------------------------------------------------------------------
  1 -0.8935E-03  0 -0.7121E-03  0 -0.6569E-03  0 -0.5900E-03  0 -0.4933E-03
   (  4, 44,  2)  (  4, 35, 35)  (  4, 35, 35)  (  4, 35, 35)  (  4, 35, 35)
  0 -0.4006E-03  0 -0.3197E-03  0  0.2569E-03  0  0.2146E-03  0  0.1822E-03
   (  4, 35, 35)  (  3, 40, 27)  (  4, 43,  5)  (  4, 43,  5)  (  4, 43,  4)
  0  0.1477E-03  0  0.1238E-03  0  0.1170E-03  0  0.9272E-04  0  0.7278E-04
   (  4, 43,  4)  (  4, 43,  4)  (  4, 43,  4)  (  4, 43,  4)  (  4, 44,  2)
  0  0.6198E-04  0  0.5769E-04  0  0.4606E-04  0  0.3699E-04  0  0.3037E-04
   (  4, 44,  2)  (  4, 44,  2)  (  4, 44,  2)  (  4, 44,  2)  (  4, 44,  2)
  0  0.2580E-04  0  0.2008E-04  0  0.1841E-04  0  0.1362E-04  0  0.1057E-04
   (  4, 44,  2)  (  4, 44,  2)  (  4, 44,  2)  (  4, 34, 35)  (  4, 34, 35)
  0  0.8165E-05  0  0.7263E-05  0  0.5579E-05  0  0.5170E-05  0  0.3559E-05
   (  4, 34, 35)  (  4, 34, 35)  (  4, 34, 35)  (  4, 34, 35)  (  4, 34, 35)
  1  0.3504E-05  0  0.3259E-05  0  0.2591E-05  0  0.2425E-05  0  0.2022E-05
   (  4, 34, 35)  (  4, 34, 35)  (  4, 34, 35)  (  4, 34, 35)  (  4, 34, 35)
  0  0.1709E-05  0  0.1431E-05  0  0.1273E-05  0  0.1070E-05  0  0.8925E-06
   (  4, 34, 35)  (  4, 34, 35)  (  4, 34, 35)  (  4, 34, 35)  (  4, 34, 35)
  0  0.8483E-06  0  0.6644E-06  0  0.4812E-06  0  0.3690E-06  0 -0.2501E-06
   (  4, 34, 35)  (  4, 34, 35)  (  4, 34, 35)  (  4, 34, 35)  (  4, 35, 35)
  0 -0.1815E-06  0 -0.1647E-06  0 -0.1241E-06  0 -0.9331E-07  0 -0.8901E-07
   (  4, 35, 35)  (  4, 35, 35)  (  4, 35, 35)  (  4, 35, 35)  (  4, 35, 35)
  0 -0.6823E-07  0 -0.5117E-07  0 -0.4519E-07  0 -0.3668E-07  0 -0.2841E-07
   (  4, 35, 35)  (  4, 35, 35)  (  4, 35, 35)  (  4, 35, 35)  (  4, 35, 35)
  0 -0.2100E-07  0 -0.1685E-07  0 -0.1544E-07  0 -0.1384E-07  0 -0.1233E-07
   (  4, 35, 35)  (  3, 36, 35)  (  3, 36, 35)  (  3, 36, 35)  (  3, 36, 35)
  1 -0.1221E-07  0 -0.1203E-07  0 -0.1175E-07  0 -0.1087E-07  0 -0.9051E-08
   (  3, 36, 35)  (  3, 36, 35)  (  3, 36, 35)  (  3, 36, 35)  (  3, 36, 35)
  0 -0.6998E-08  0 -0.5434E-08  1 -0.5313E-08
   (  3, 36, 35)  (  3, 36, 35)  (  3, 36, 35)



 OUTPUT CONTROL FOR STRESS PERIOD  123   TIME STEP    1
    SAVE HEAD FOR ALL LAYERS
    SAVE DRAWDOWN FOR ALL LAYERS
    SAVE BUDGET
    PRINT BUDGET
 UBDSV1 SAVING "         STORAGE" ON UNIT   9 AT TIME STEP  1, STRESS PERIOD 123
 UBDSV2 SAVING "   CONSTANT HEAD" ON UNIT   9 AT TIME STEP  1, STRESS PERIOD 123
 UBDSV1 SAVING "FLOW RIGHT FACE " ON UNIT   9 AT TIME STEP  1, STRESS PERIOD 123
 UBDSV1 SAVING "FLOW FRONT FACE " ON UNIT   9 AT TIME STEP  1, STRESS PERIOD 123
 UBDSV1 SAVING "FLOW LOWER FACE " ON UNIT   9 AT TIME STEP  1, STRESS PERIOD 123
 UBDSV3 SAVING "        RECHARGE" ON UNIT   9 AT TIME STEP  1, STRESS PERIOD 123

 HEAD WILL BE SAVED ON UNIT   37 AT END OF TIME STEP    1, STRESS PERIOD  123

 DRAWDOWN WILL BE SAVED ON UNIT   38 AT END OF TIME STEP    1, STRESS PERIOD  123
1
  VOLUMETRIC BUDGET FOR ENTIRE MODEL AT END OF TIME STEP    1, STRESS PERIOD 123
  ------------------------------------------------------------------------------

     CUMULATIVE VOLUMES      L**3       RATES FOR THIS TIME STEP      L**3/T
     ------------------                 ------------------------

           IN:                                      IN:
           ---                                      ---
             STORAGE =       18360.4395               STORAGE =           0.0000
       CONSTANT HEAD =       31943.4805         CONSTANT HEAD =       3.0229E-03
            RECHARGE =        1517.7181              RECHARGE =       1.0213E-04

            TOTAL IN =       51821.6406              TOTAL IN =       3.1250E-03

          OUT:                                     OUT:
          ----                                     ----
             STORAGE =       15897.1396               STORAGE =       3.1131E-03
       CONSTANT HEAD =       35926.0234         CONSTANT HEAD =       1.1950E-05
            RECHARGE =           0.0000              RECHARGE =           0.0000

           TOTAL OUT =       51823.1641             TOTAL OUT =       3.1250E-03

            IN - OUT =          -1.5234              IN - OUT =       4.8894E-09

 PERCENT DISCREPANCY =          -0.00     PERCENT DISCREPANCY =           0.00






         TIME SUMMARY AT END OF TIME STEP    1 IN STRESS PERIOD  123
                    SECONDS     MINUTES      HOURS       DAYS        YEARS
                    -----------------------------------------------------------
   TIME STEP LENGTH  86400.      1440.0      24.000      1.0000     2.73785E-03
 STRESS PERIOD TIME  86400.      1440.0      24.000      1.0000     2.73785E-03
         TOTAL TIME 1.48608E+07 2.47680E+05  4128.0      172.00     0.47091    
1
1
                            STRESS PERIOD NO.  124, LENGTH =   259200.0    
                            -----------------------------------------------

                              NUMBER OF TIME STEPS =     3

                               MULTIPLIER FOR DELT =     1.000

                            INITIAL TIME STEP SIZE =   86400.00    

 REUSING RECH FROM LAST STRESS PERIOD

 CHD NO.   LAYER   ROW   COL    START HEAD        END HEAD         IFACE           
 ----------------------------------------------------------------------------------
      1      4      3      1       110.1           110.1           0.000    
      2      5      3      1       110.1           110.1           0.000    
      3      4      3      2       110.1           110.1           0.000    
      4      5      3      2       110.1           110.1           0.000    
      5      4      3      3       110.1           110.1           0.000    
      6      5      3      3       110.1           110.1           0.000    
      7      4      3      4       110.1           110.1           0.000    
      8      5      3      4       110.1           110.1           0.000    
      9      4      3      5       110.1           110.1           0.000    
     10      5      3      5       110.1           110.1           0.000    
     11      4      3      6       110.1           110.1           0.000    
     12      5      3      6       110.1           110.1           0.000    
     13      4      3      7       110.1           110.1           0.000    
     14      5      3      7       110.1           110.1           0.000    
     15      4      3      8       110.1           110.1           0.000    
     16      5      3      8       110.1           110.1           0.000    
     17      4      2      8       110.1           110.1           0.000    
     18      5      2      8       110.1           110.1           0.000    
     19      4      2      9       110.1           110.1           0.000    
     20      5      2      9       110.1           110.1           0.000    
     21      4      2     10       110.1           110.1           0.000    
     22      5      2     10       110.1           110.1           0.000    
     23      4      2     11       110.1           110.1           0.000    
     24      5      2     11       110.1           110.1           0.000    
     25      4      2     12       110.1           110.1           0.000    
     26      5      2     12       110.1           110.1           0.000    
     27      4      2     13       110.1           110.1           0.000    
     28      5      2     13       110.1           110.1           0.000    
     29      4      2     14       110.1           110.1           0.000    
     30      5      2     14       110.1           110.1           0.000    
     31      4      2     15       110.1           110.1           0.000    
     32      5      2     15       110.1           110.1           0.000    
     33      4      2     16       110.1           110.1           0.000    
     34      5      2     16       110.1           110.1           0.000    
     35      4      2     17       110.1           110.1           0.000    
     36      5      2     17       110.1           110.1           0.000    
     37      4      2     18       110.1           110.1           0.000    
     38      5      2     18       110.1           110.1           0.000    
     39      4      2     19       110.1           110.1           0.000    
     40      5      2     19       110.1           110.1           0.000    
     41      4      2     20       110.1           110.1           0.000    
     42      5      2     20       110.1           110.1           0.000    
     43      4      2     21       110.1           110.1           0.000    
     44      5      2     21       110.1           110.1           0.000    
     45      4      2     22       110.1           110.1           0.000    
     46      5      2     22       110.1           110.1           0.000    
     47      4      2     23       110.1           110.1           0.000    
     48      5      2     23       110.1           110.1           0.000    
     49      4      2     24       110.1           110.1           0.000    
     50      5      2     24       110.1           110.1           0.000    
     51      4      2     25       110.1           110.1           0.000    
     52      5      2     25       110.1           110.1           0.000    
     53      4      2     26       110.1           110.1           0.000    
     54      5      2     26       110.1           110.1           0.000    
     55      4      1     26       110.1           110.1           0.000    
     56      5      1     26       110.1           110.1           0.000    
     57      4      1     27       110.1           110.1           0.000    
     58      5      1     27       110.1           110.1           0.000    
     59      4      1     28       110.1           110.1           0.000    
     60      5      1     28       110.1           110.1           0.000    
     61      4      1     29       110.1           110.1           0.000    
     62      5      1     29       110.1           110.1           0.000    
     63      4      1     30       110.1           110.1           0.000    
     64      5      1     30       110.1           110.1           0.000    
     65      4      1     31       110.1           110.1           0.000    
     66      5      1     31       110.1           110.1           0.000    
     67      4      1     32       110.1           110.1           0.000    
     68      5      1     32       110.1           110.1           0.000    
     69      4      1     33       110.1           110.1           0.000    
     70      5      1     33       110.1           110.1           0.000    
     71      4      1     34       110.1           110.1           0.000    
     72      5      1     34       110.1           110.1           0.000    
     73      4      1     35       110.1           110.1           0.000    
     74      5      1     35       110.1           110.1           0.000    
     75      4     36     35       110.2           109.8           0.000    
     76      5     36     35       110.2           109.8           0.000    
     77      4     35     34       110.2           109.8           0.000    
     78      5     35     34       110.2           109.8           0.000    
     79      4     36     34       110.2           109.8           0.000    
     80      5     36     34       110.2           109.8           0.000    
     81      4     36     33       110.2           109.8           0.000    
     82      5     36     33       110.2           109.8           0.000    
     83      4     36     32       110.2           109.8           0.000    
     84      5     36     32       110.2           109.8           0.000    
     85      4     37     32       110.2           109.8           0.000    
     86      5     37     32       110.2           109.8           0.000    
     87      4     37     31       110.2           109.8           0.000    
     88      5     37     31       110.2           109.8           0.000    
     89      4     38     31       110.2           109.8           0.000    
     90      5     38     31       110.2           109.8           0.000    
     91      4     38     30       110.2           109.8           0.000    
     92      5     38     30       110.2           109.8           0.000    
     93      4     39     30       110.2           109.8           0.000    
     94      5     39     30       110.2           109.8           0.000    
     95      4     39     29       110.2           109.8           0.000    
     96      5     39     29       110.2           109.8           0.000    
     97      4     40     29       110.2           109.8           0.000    
     98      5     40     29       110.2           109.8           0.000    
     99      4     40     28       110.2           109.8           0.000    
    100      5     40     28       110.2           109.8           0.000    
    101      4     40     27       110.2           109.8           0.000    
    102      5     40     27       110.2           109.8           0.000    
    103      4     41     27       110.2           109.8           0.000    
    104      5     41     27       110.2           109.8           0.000    
    105      4     41     26       110.2           109.8           0.000    
    106      5     41     26       110.2           109.8           0.000    
    107      4     41     25       110.2           109.8           0.000    
    108      5     41     25       110.2           109.8           0.000    
    109      4     41     24       110.2           109.8           0.000    
    110      5     41     24       110.2           109.8           0.000    
    111      4     41     23       110.2           109.8           0.000    
    112      5     41     23       110.2           109.8           0.000    
    113      4     41     22       110.2           109.8           0.000    
    114      5     41     22       110.2           109.8           0.000    
    115      4     42     22       110.2           109.8           0.000    
    116      5     42     22       110.2           109.8           0.000    
    117      4     42     21       110.2           109.8           0.000    
    118      5     42     21       110.2           109.8           0.000    
    119      4     42     20       110.2           109.8           0.000    
    120      5     42     20       110.2           109.8           0.000    
    121      4     42     19       110.2           109.8           0.000    
    122      5     42     19       110.2           109.8           0.000    
    123      4     43     18       110.2           109.8           0.000    
    124      5     43     18       110.2           109.8           0.000    
    125      4     42     18       110.2           109.8           0.000    
    126      5     42     18       110.2           109.8           0.000    
    127      4     42     17       110.2           109.8           0.000    
    128      5     42     17       110.2           109.8           0.000    
    129      4     42     16       110.2           109.8           0.000    
    130      5     42     16       110.2           109.8           0.000    
    131      4     42     15       110.2           109.8           0.000    
    132      5     42     15       110.2           109.8           0.000    
    133      4     43     15       110.2           109.8           0.000    
    134      5     43     15       110.2           109.8           0.000    
    135      4     43     14       110.2           109.8           0.000    
    136      5     43     14       110.2           109.8           0.000    
    137      4     43     13       110.2           109.8           0.000    
    138      5     43     13       110.2           109.8           0.000    
    139      4     43     12       110.2           109.8           0.000    
    140      5     43     12       110.2           109.8           0.000    
    141      4     43     11       110.1           109.8           0.000    
    142      5     43     11       110.1           109.8           0.000    
    143      4     43     10       110.1           109.8           0.000    
    144      5     43     10       110.1           109.8           0.000    
    145      4     44     10       110.1           109.8           0.000    
    146      5     44     10       110.1           109.8           0.000    
    147      4     44      9       110.1           109.8           0.000    
    148      5     44      9       110.1           109.8           0.000    
    149      4     44      8       110.1           109.8           0.000    
    150      5     44      8       110.1           109.8           0.000    
    151      4     44      7       110.1           109.8           0.000    
    152      5     44      7       110.1           109.8           0.000    
    153      4     44      6       110.1           109.8           0.000    
    154      5     44      6       110.1           109.8           0.000    
    155      4     44      5       110.1           109.8           0.000    
    156      5     44      5       110.1           109.8           0.000    
    157      4     44      4       110.1           109.8           0.000    
    158      5     44      4       110.1           109.8           0.000    
    159      4     44      3       110.1           109.8           0.000    
    160      5     44      3       110.1           109.8           0.000    
    161      4     45      3       110.1           109.8           0.000    
    162      5     45      3       110.1           109.8           0.000    
    163      4     45      2       110.1           109.8           0.000    
    164      5     45      2       110.1           109.8           0.000    
    165      4     45      1       110.1           109.8           0.000    
    166      5     45      1       110.1           109.8           0.000    


    166 TIME-VARIANT SPECIFIED-HEAD CELLS

 SOLVING FOR HEAD 


     3 CALLS TO PCG ROUTINE FOR TIME STEP   1 IN STRESS PERIOD  124
    61 TOTAL ITERATIONS

 MAXIMUM HEAD CHANGE FOR EACH ITERATION (1 INDICATES THE FIRST INNER ITERATION):

    HEAD CHANGE    HEAD CHANGE    HEAD CHANGE    HEAD CHANGE    HEAD CHANGE 
   LAYER,ROW,COL  LAYER,ROW,COL  LAYER,ROW,COL  LAYER,ROW,COL  LAYER,ROW,COL
 ---------------------------------------------------------------------------
  1 -0.3327      0  0.1919      0 -0.1151      0  0.9276E-01  0 -0.1378    
   (  5, 43,  5)  (  5, 35,  1)  (  5, 31,  2)  (  5, 41,  2)  (  5, 37,  1)
  0  0.6666E-01  0 -0.8195E-01  0  0.9020E-01  0  0.5162E-01  0  0.3963E-01
   (  5, 35,  2)  (  5, 40,  1)  (  5, 37,  1)  (  5, 37,  6)  (  5, 40,  2)
  0  0.3139E-01  0 -0.2902E-01  0 -0.1370E-01  0  0.1724E-01  0 -0.1852E-01
   (  5, 35,  9)  (  5, 33,  9)  (  5, 29,  1)  (  5, 31,  9)  (  5, 36,  8)
  0  0.8390E-02  0  0.1331E-01  0 -0.8588E-02  0  0.7004E-02  0  0.4986E-02
   (  5, 34,  3)  (  5, 34,  9)  (  5, 32,  9)  (  5, 30, 10)  (  5, 38,  4)
  0 -0.4036E-02  0  0.3457E-02  0 -0.1812E-02  0 -0.3348E-02  0  0.2668E-02
   (  5, 37,  1)  (  5, 35,  1)  (  5, 30,  2)  (  5, 13,  1)  (  5, 13,  1)
  0  0.1704E-02  0  0.1041E-02  0 -0.8757E-03  0  0.9388E-03  0 -0.6200E-03
   (  5, 37,  1)  (  5, 34,  3)  (  5, 35,  1)  (  5, 38,  1)  (  5, 12,  1)
  1  0.3025E-03  0 -0.3710E-03  0  0.2382E-03  0 -0.2078E-03  0  0.2220E-03
   (  5, 12,  1)  (  5, 37,  1)  (  5, 32,  3)  (  5, 23,  2)  (  5, 30,  6)
  0  0.1848E-03  0 -0.2566E-03  0  0.2334E-03  0 -0.2311E-03  0  0.1134E-03
   (  5, 33,  1)  (  5, 39,  5)  (  5, 37,  1)  (  5, 40,  1)  (  5, 37,  1)
  0  0.1017E-03  0  0.7275E-04  0 -0.5348E-04  0 -0.3746E-04  0  0.4290E-04
   (  5, 34,  3)  (  5, 40,  4)  (  5, 39,  1)  (  5, 29,  1)  (  5, 32,  4)
  0 -0.2936E-04  0 -0.2479E-04  0  0.1883E-04  0 -0.1954E-04  0 -0.1984E-04
   (  5, 32,  9)  (  5, 41,  1)  (  5, 37,  4)  (  5, 35,  2)  (  5, 36,  9)
  0  0.1621E-04  0 -0.8808E-05  0  0.9733E-05  0  0.5537E-05  0 -0.6691E-05
   (  5, 37,  7)  (  5, 36,  4)  (  5, 30,  1)  (  5, 39,  4)  (  5, 38,  1)
  0  0.5986E-05  0 -0.3572E-05  0  0.3395E-05  0  0.1766E-05  0 -0.1709E-05
   (  5, 40,  1)  (  5, 41,  5)  (  5, 43,  7)  (  5, 41,  1)  (  5, 38,  2)
  1  0.8591E-06
   (  5, 36,  2)

 MAXIMUM RESIDUAL FOR EACH ITERATION (1 INDICATES THE FIRST INNER ITERATION):

    RESIDUAL       RESIDUAL       RESIDUAL       RESIDUAL       RESIDUAL    
   LAYER,ROW,COL  LAYER,ROW,COL  LAYER,ROW,COL  LAYER,ROW,COL  LAYER,ROW,COL
 ---------------------------------------------------------------------------
  1  0.1836E-02  0  0.1420E-02  0  0.1208E-02  0  0.9896E-03  0  0.8259E-03
   (  4, 44,  2)  (  4, 44,  2)  (  4, 44,  2)  (  4, 35, 35)  (  4, 35, 35)
  0  0.7181E-03  0  0.6105E-03  0  0.4898E-03  0  0.3965E-03  0  0.3092E-03
   (  3, 40, 27)  (  3, 40, 27)  (  3, 40, 27)  (  3, 40, 27)  (  4, 35, 35)
  0  0.2406E-03  0  0.1796E-03  0  0.1655E-03  0 -0.1363E-03  0 -0.1095E-03
   (  4, 35, 35)  (  4, 35, 35)  (  4, 35, 35)  (  3, 35, 35)  (  3, 35, 35)
  0 -0.1003E-03  0 -0.7856E-04  0 -0.6021E-04  0 -0.5098E-04  0 -0.4265E-04
   (  3, 35, 35)  (  3, 35, 35)  (  4, 34, 35)  (  4, 34, 35)  (  4, 34, 35)
  0 -0.3890E-04  0 -0.3324E-04  0 -0.3213E-04  0 -0.2595E-04  0 -0.2097E-04
   (  4, 34, 35)  (  4, 34, 35)  (  4, 34, 35)  (  4, 34, 35)  (  4, 34, 35)
  0 -0.1717E-04  0 -0.1562E-04  0 -0.1452E-04  0 -0.1111E-04  0 -0.7880E-05
   (  4, 34, 35)  (  4, 34, 35)  (  4, 34, 35)  (  4, 34, 35)  (  4, 34, 35)
  1 -0.7391E-05  0 -0.6336E-05  0 -0.6102E-05  0 -0.5498E-05  0 -0.4783E-05
   (  4, 34, 35)  (  4, 34, 35)  (  4, 34, 35)  (  4, 34, 35)  (  4, 34, 35)
  0 -0.4101E-05  0 -0.3369E-05  0 -0.2812E-05  0 -0.2047E-05  0 -0.1629E-05
   (  4, 34, 35)  (  4, 34, 35)  (  4, 34, 35)  (  4, 34, 35)  (  4, 34, 35)
  0 -0.1234E-05  0  0.9101E-06  0  0.7849E-06  0  0.7398E-06  0  0.5789E-06
   (  4, 34, 35)  (  4, 35, 35)  (  4, 35, 35)  (  4, 35, 35)  (  4, 35, 35)
  0  0.4457E-06  0  0.3584E-06  0  0.3312E-06  0  0.2513E-06  0  0.1866E-06
   (  4, 35, 35)  (  4, 35, 35)  (  4, 35, 35)  (  4, 35, 35)  (  4, 35, 35)
  0  0.1392E-06  0  0.1181E-06  0  0.1015E-06  0  0.8863E-07  0  0.6426E-07
   (  4, 35, 35)  (  4, 35, 35)  (  4, 35, 35)  (  4, 35, 35)  (  4, 35, 35)
  0  0.4676E-07  0  0.3439E-07  0  0.2078E-07  0  0.1608E-07  0  0.1482E-07
   (  4, 35, 35)  (  4, 35, 35)  (  4, 35, 35)  (  4, 35, 35)  (  3, 36, 35)
  1  0.1463E-07
   (  3, 36, 35)



 OUTPUT CONTROL FOR STRESS PERIOD  124   TIME STEP    1
    SAVE HEAD FOR ALL LAYERS
    SAVE DRAWDOWN FOR ALL LAYERS
    SAVE BUDGET
    PRINT BUDGET
 UBDSV1 SAVING "         STORAGE" ON UNIT   9 AT TIME STEP  1, STRESS PERIOD 124
 UBDSV2 SAVING "   CONSTANT HEAD" ON UNIT   9 AT TIME STEP  1, STRESS PERIOD 124
 UBDSV1 SAVING "FLOW RIGHT FACE " ON UNIT   9 AT TIME STEP  1, STRESS PERIOD 124
 UBDSV1 SAVING "FLOW FRONT FACE " ON UNIT   9 AT TIME STEP  1, STRESS PERIOD 124
 UBDSV1 SAVING "FLOW LOWER FACE " ON UNIT   9 AT TIME STEP  1, STRESS PERIOD 124
 UBDSV3 SAVING "        RECHARGE" ON UNIT   9 AT TIME STEP  1, STRESS PERIOD 124

 HEAD WILL BE SAVED ON UNIT   37 AT END OF TIME STEP    1, STRESS PERIOD  124

 DRAWDOWN WILL BE SAVED ON UNIT   38 AT END OF TIME STEP    1, STRESS PERIOD  124
1
  VOLUMETRIC BUDGET FOR ENTIRE MODEL AT END OF TIME STEP    1, STRESS PERIOD 124
  ------------------------------------------------------------------------------

     CUMULATIVE VOLUMES      L**3       RATES FOR THIS TIME STEP      L**3/T
     ------------------                 ------------------------

           IN:                                      IN:
           ---                                      ---
             STORAGE =       18479.6094               STORAGE =       1.3793E-03
       CONSTANT HEAD =       31972.8770         CONSTANT HEAD =       3.4024E-04
            RECHARGE =        1526.5421              RECHARGE =       1.0213E-04

            TOTAL IN =       51979.0273              TOTAL IN =       1.8216E-03

          OUT:                                     OUT:
          ----                                     ----
             STORAGE =       15897.1396               STORAGE =           0.0000
       CONSTANT HEAD =       36083.4492         CONSTANT HEAD =       1.8221E-03
            RECHARGE =           0.0000              RECHARGE =           0.0000

           TOTAL OUT =       51980.5898             TOTAL OUT =       1.8221E-03

            IN - OUT =          -1.5625              IN - OUT =      -4.1851E-07

 PERCENT DISCREPANCY =          -0.00     PERCENT DISCREPANCY =          -0.02






         TIME SUMMARY AT END OF TIME STEP    1 IN STRESS PERIOD  124
                    SECONDS     MINUTES      HOURS       DAYS        YEARS
                    -----------------------------------------------------------
   TIME STEP LENGTH  86400.      1440.0      24.000      1.0000     2.73785E-03
 STRESS PERIOD TIME  86400.      1440.0      24.000      1.0000     2.73785E-03
         TOTAL TIME 1.49472E+07 2.49120E+05  4152.0      173.00     0.47365    
1

 SOLVING FOR HEAD 
     4 CALLS TO PCG ROUTINE FOR TIME STEP   2 IN STRESS PERIOD  124
    68 TOTAL ITERATIONS

 MAXIMUM HEAD CHANGE FOR EACH ITERATION (1 INDICATES THE FIRST INNER ITERATION):

    HEAD CHANGE    HEAD CHANGE    HEAD CHANGE    HEAD CHANGE    HEAD CHANGE 
   LAYER,ROW,COL  LAYER,ROW,COL  LAYER,ROW,COL  LAYER,ROW,COL  LAYER,ROW,COL
 ---------------------------------------------------------------------------
  1 -0.3527      0  0.1924      0 -0.1124      0  0.9805E-01  0 -0.1279    
   (  5, 43,  5)  (  5, 35,  1)  (  5, 30,  2)  (  5, 41,  2)  (  5, 37,  1)
  0 -0.7055E-01  0 -0.8376E-01  0  0.9106E-01  0  0.5088E-01  0  0.4107E-01
   (  5, 39,  1)  (  5, 40,  1)  (  5, 37,  1)  (  5, 37,  6)  (  5, 40,  2)
  0  0.3537E-01  0 -0.3246E-01  0 -0.1242E-01  0  0.2141E-01  0 -0.1694E-01
   (  5, 35,  9)  (  5, 33, 10)  (  5, 29,  1)  (  5, 30,  8)  (  5, 36,  8)
  0  0.8259E-02  0  0.1007E-01  0  0.8104E-02  0  0.6205E-02  0 -0.5573E-02
   (  5, 37,  1)  (  5, 34,  9)  (  5, 15,  1)  (  5, 39,  1)  (  5, 37,  1)
  0  0.5576E-02  0  0.3200E-02  0  0.1834E-02  0 -0.2996E-02  0  0.2559E-02
   (  5, 38,  4)  (  5, 14,  1)  (  5, 33,  4)  (  5, 13,  1)  (  5, 13,  1)
  0  0.1788E-02  0  0.1168E-02  0 -0.8009E-03  0  0.8181E-03  0 -0.6587E-03
   (  5, 37,  1)  (  5, 35,  4)  (  5, 35,  1)  (  5, 12,  1)  (  5, 36,  1)
  1  0.3842E-03  0 -0.2880E-03  0  0.4963E-03  0 -0.2634E-03  0 -0.3560E-03
   (  5, 34,  1)  (  5, 29,  1)  (  5, 32,  3)  (  5, 25,  4)  (  5, 34,  3)
  0  0.3114E-03  0 -0.3250E-03  0  0.2652E-03  0 -0.2464E-03  0  0.1556E-03
   (  5, 34,  1)  (  5, 39,  4)  (  5, 38,  1)  (  5, 39,  1)  (  5, 37,  1)
  0 -0.1183E-03  0  0.6382E-04  0  0.6772E-04  0 -0.7974E-04  0  0.4672E-04
   (  5, 38,  4)  (  5, 32,  4)  (  5, 41,  2)  (  5, 39,  1)  (  5, 25, 12)
  0 -0.3570E-04  0  0.3194E-04  0 -0.2801E-04  0 -0.2292E-04  0 -0.2488E-04
   (  5, 32,  9)  (  5, 37,  4)  (  5, 33,  4)  (  5, 30, 11)  (  5, 36,  9)
  0  0.1325E-04  0 -0.1424E-04  0  0.1298E-04  0 -0.1108E-04  0  0.6945E-05
   (  5, 32,  5)  (  5, 32,  1)  (  5, 36,  1)  (  5, 38,  1)  (  5, 40,  6)
  0  0.4556E-05  0  0.5610E-05  0 -0.3466E-05  0  0.2839E-05  0  0.2574E-05
   (  5, 40,  2)  (  5, 37,  1)  (  5, 40,  2)  (  5, 43,  6)  (  5, 29,  5)
  1 -0.1055E-05  0  0.1844E-05  0  0.1523E-05  0 -0.1696E-05  0  0.1238E-05
   (  5, 30,  3)  (  5, 14,  2)  (  5, 39,  1)  (  5, 37,  1)  (  5, 34,  1)
  0  0.1278E-05  0 -0.6797E-06  1  0.5055E-06
   (  5, 13,  1)  (  5, 28,  7)  (  5, 24,  4)

 MAXIMUM RESIDUAL FOR EACH ITERATION (1 INDICATES THE FIRST INNER ITERATION):

    RESIDUAL       RESIDUAL       RESIDUAL       RESIDUAL       RESIDUAL    
   LAYER,ROW,COL  LAYER,ROW,COL  LAYER,ROW,COL  LAYER,ROW,COL  LAYER,ROW,COL
 ---------------------------------------------------------------------------
  1  0.1757E-02  0  0.1340E-02  0  0.1129E-02  0  0.1009E-02  0  0.8531E-03
   (  4, 44,  2)  (  4, 44,  2)  (  4, 44,  2)  (  4, 35, 35)  (  4, 35, 35)
  0  0.7224E-03  0  0.6069E-03  0  0.4826E-03  0  0.3868E-03  0  0.2970E-03
   (  4, 35, 35)  (  3, 40, 27)  (  3, 40, 27)  (  3, 40, 27)  (  3, 40, 27)
  0 -0.2239E-03  0 -0.1844E-03  0 -0.1762E-03  0 -0.1443E-03  0 -0.1141E-03
   (  3, 35, 35)  (  3, 35, 35)  (  3, 35, 35)  (  3, 35, 35)  (  3, 35, 35)
  0 -0.1047E-03  0 -0.8117E-04  0 -0.6013E-04  0 -0.5084E-04  0 -0.4579E-04
   (  3, 35, 35)  (  4, 43,  4)  (  4, 43,  4)  (  4, 34, 35)  (  4, 34, 35)
  0 -0.4047E-04  0 -0.3321E-04  0 -0.3168E-04  0 -0.2588E-04  0 -0.2074E-04
   (  4, 34, 35)  (  4, 34, 35)  (  4, 34, 35)  (  4, 34, 35)  (  4, 34, 35)
  0 -0.1800E-04  0 -0.1517E-04  0 -0.1429E-04  0 -0.1063E-04  0 -0.7519E-05
   (  4, 34, 35)  (  4, 34, 35)  (  4, 34, 35)  (  4, 34, 35)  (  4, 34, 35)
  1 -0.7049E-05  0 -0.6833E-05  0 -0.5674E-05  0 -0.5179E-05  0 -0.4307E-05
   (  4, 34, 35)  (  4, 34, 35)  (  4, 34, 35)  (  4, 34, 35)  (  4, 34, 35)
  0 -0.3690E-05  0 -0.3053E-05  0 -0.2447E-05  0 -0.1916E-05  0 -0.1585E-05
   (  4, 34, 35)  (  4, 34, 35)  (  4, 34, 35)  (  4, 34, 35)  (  4, 34, 35)
  0  0.1251E-05  0  0.1174E-05  0  0.1008E-05  0  0.8490E-06  0  0.6565E-06
   (  4, 35, 35)  (  4, 35, 35)  (  4, 35, 35)  (  4, 35, 35)  (  4, 35, 35)
  0  0.5198E-06  0  0.4656E-06  0  0.3639E-06  0  0.2628E-06  0  0.1949E-06
   (  4, 35, 35)  (  4, 35, 35)  (  4, 35, 35)  (  4, 35, 35)  (  4, 35, 35)
  0  0.1767E-06  0  0.1487E-06  0  0.1272E-06  0  0.9446E-07  0  0.6912E-07
   (  4, 35, 35)  (  4, 35, 35)  (  4, 35, 35)  (  4, 35, 35)  (  4, 35, 35)
  0  0.5255E-07  0  0.4028E-07  0  0.3409E-07  0  0.2587E-07  0  0.1988E-07
   (  4, 35, 35)  (  4, 35, 35)  (  4, 35, 35)  (  4, 35, 35)  (  4, 35, 35)
  1  0.1973E-07  0  0.1856E-07  0  0.1680E-07  0  0.1489E-07  0  0.1385E-07
   (  4, 35, 35)  (  4, 35, 35)  (  4, 35, 35)  (  4, 35, 35)  (  4, 35, 35)
  0  0.1195E-07  0  0.1098E-07  1  0.1088E-07
   (  4, 35, 35)  (  4, 35, 35)  (  4, 35, 35)



 OUTPUT CONTROL FOR STRESS PERIOD  124   TIME STEP    2
    SAVE HEAD FOR ALL LAYERS
    SAVE DRAWDOWN FOR ALL LAYERS
    SAVE BUDGET
    PRINT BUDGET
 UBDSV1 SAVING "         STORAGE" ON UNIT   9 AT TIME STEP  2, STRESS PERIOD 124
 UBDSV2 SAVING "   CONSTANT HEAD" ON UNIT   9 AT TIME STEP  2, STRESS PERIOD 124
 UBDSV1 SAVING "FLOW RIGHT FACE " ON UNIT   9 AT TIME STEP  2, STRESS PERIOD 124
 UBDSV1 SAVING "FLOW FRONT FACE " ON UNIT   9 AT TIME STEP  2, STRESS PERIOD 124
 UBDSV1 SAVING "FLOW LOWER FACE " ON UNIT   9 AT TIME STEP  2, STRESS PERIOD 124
 UBDSV3 SAVING "        RECHARGE" ON UNIT   9 AT TIME STEP  2, STRESS PERIOD 124

 HEAD WILL BE SAVED ON UNIT   37 AT END OF TIME STEP    2, STRESS PERIOD  124

 DRAWDOWN WILL BE SAVED ON UNIT   38 AT END OF TIME STEP    2, STRESS PERIOD  124
1
  VOLUMETRIC BUDGET FOR ENTIRE MODEL AT END OF TIME STEP    2, STRESS PERIOD 124
  ------------------------------------------------------------------------------

     CUMULATIVE VOLUMES      L**3       RATES FOR THIS TIME STEP      L**3/T
     ------------------                 ------------------------

           IN:                                      IN:
           ---                                      ---
             STORAGE =       18704.2754               STORAGE =       2.6003E-03
       CONSTANT HEAD =       32039.7402         CONSTANT HEAD =       7.7387E-04
            RECHARGE =        1535.3661              RECHARGE =       1.0213E-04

            TOTAL IN =       52279.3828              TOTAL IN =       3.4763E-03

          OUT:                                     OUT:
          ----                                     ----
             STORAGE =       15897.1396               STORAGE =           0.0000
       CONSTANT HEAD =       36383.8203         CONSTANT HEAD =       3.4765E-03
            RECHARGE =           0.0000              RECHARGE =           0.0000

           TOTAL OUT =       52280.9609             TOTAL OUT =       3.4765E-03

            IN - OUT =          -1.5781              IN - OUT =      -2.2841E-07

 PERCENT DISCREPANCY =          -0.00     PERCENT DISCREPANCY =          -0.01






         TIME SUMMARY AT END OF TIME STEP    2 IN STRESS PERIOD  124
                    SECONDS     MINUTES      HOURS       DAYS        YEARS
                    -----------------------------------------------------------
   TIME STEP LENGTH  86400.      1440.0      24.000      1.0000     2.73785E-03
 STRESS PERIOD TIME 1.72800E+05  2880.0      48.000      2.0000     5.47570E-03
         TOTAL TIME 1.50336E+07 2.50560E+05  4176.0      174.00     0.47639    
1

 SOLVING FOR HEAD 
     4 CALLS TO PCG ROUTINE FOR TIME STEP   3 IN STRESS PERIOD  124
    69 TOTAL ITERATIONS

 MAXIMUM HEAD CHANGE FOR EACH ITERATION (1 INDICATES THE FIRST INNER ITERATION):

    HEAD CHANGE    HEAD CHANGE    HEAD CHANGE    HEAD CHANGE    HEAD CHANGE 
   LAYER,ROW,COL  LAYER,ROW,COL  LAYER,ROW,COL  LAYER,ROW,COL  LAYER,ROW,COL
 ---------------------------------------------------------------------------
  1 -0.3589      0  0.1922      0 -0.1121      0  0.9903E-01  0 -0.1237    
   (  5, 43,  5)  (  5, 35,  1)  (  5, 30,  2)  (  5, 41,  2)  (  5, 37,  1)
  0 -0.7477E-01  0 -0.8448E-01  0  0.9004E-01  0  0.5073E-01  0  0.4058E-01
   (  5, 39,  1)  (  5, 40,  1)  (  5, 37,  1)  (  5, 37,  6)  (  5, 40,  2)
  0  0.3717E-01  0 -0.3029E-01  0  0.1743E-01  0  0.2102E-01  0 -0.1603E-01
   (  5, 35,  9)  (  5, 32,  9)  (  5, 29,  3)  (  5, 30,  9)  (  5, 36,  8)
  0  0.8456E-02  0  0.9612E-02  0  0.8125E-02  0  0.6310E-02  0 -0.5681E-02
   (  5, 37,  1)  (  5, 34,  9)  (  5, 15,  1)  (  5, 39,  1)  (  5, 37,  1)
  0  0.5688E-02  0 -0.3635E-02  0  0.2918E-02  0 -0.3422E-02  0  0.2643E-02
   (  5, 38,  4)  (  5, 36,  4)  (  5, 31,  3)  (  5, 13,  1)  (  5, 13,  1)
  0 -0.1346E-02  0  0.7694E-03  0 -0.9077E-03  0 -0.7188E-03  0  0.4780E-03
   (  5, 12,  1)  (  5, 35,  3)  (  5, 39,  4)  (  5, 36,  1)  (  5, 39,  1)
  1  0.4004E-03  0 -0.3338E-03  0  0.4900E-03  0 -0.4028E-03  0  0.2713E-03
   (  5, 32,  3)  (  5, 29,  4)  (  5, 40,  2)  (  5, 38,  1)  (  5, 24,  3)
  0  0.3609E-03  0 -0.3586E-03  0 -0.1859E-03  0  0.1529E-03  0  0.1819E-03
   (  5, 34,  1)  (  5, 36,  2)  (  5, 34,  4)  (  5, 35,  3)  (  5, 41,  1)
  0 -0.1550E-03  0  0.4700E-04  0  0.5950E-04  0 -0.7044E-04  0  0.4494E-04
   (  5, 40,  2)  (  5, 30,  3)  (  5, 41,  2)  (  5, 33,  6)  (  5, 33, 10)
  0 -0.4670E-04  0 -0.2421E-04  0 -0.2395E-04  0 -0.1813E-04  0 -0.1586E-04
   (  5, 32,  8)  (  5, 35,  3)  (  5, 23,  1)  (  5, 31, 11)  (  5, 36,  2)
  0  0.1478E-04  0 -0.9950E-05  0  0.1242E-04  0 -0.9661E-05  0 -0.7964E-05
   (  5, 37,  1)  (  5, 28,  1)  (  5, 33,  5)  (  5, 34, 10)  (  5, 36,  6)
  0 -0.5809E-05  0  0.5337E-05  0 -0.3729E-05  0 -0.1841E-05  0  0.3202E-05
   (  5, 37,  2)  (  5, 38,  1)  (  5, 42,  5)  (  5, 34,  3)  (  5, 36,  2)
  1  0.1474E-05  0 -0.1534E-05  0  0.1391E-05  0 -0.1297E-05  0 -0.1871E-05
   (  5, 28,  1)  (  5, 36,  1)  (  5, 34,  1)  (  5, 37,  5)  (  5, 41,  2)
  0  0.1636E-05  0 -0.1070E-05  0  0.6397E-06  1  0.5258E-06
   (  5, 38,  2)  (  5, 35,  2)  (  5, 36,  5)  (  5, 32,  7)

 MAXIMUM RESIDUAL FOR EACH ITERATION (1 INDICATES THE FIRST INNER ITERATION):

    RESIDUAL       RESIDUAL       RESIDUAL       RESIDUAL       RESIDUAL    
   LAYER,ROW,COL  LAYER,ROW,COL  LAYER,ROW,COL  LAYER,ROW,COL  LAYER,ROW,COL
 ---------------------------------------------------------------------------
  1  0.1732E-02  0  0.1319E-02  0  0.1124E-02  0  0.1018E-02  0  0.8648E-03
   (  4, 44,  2)  (  4, 44,  2)  (  4, 35, 35)  (  4, 35, 35)  (  4, 35, 35)
  0  0.7294E-03  0  0.6055E-03  0  0.4812E-03  0  0.3848E-03  0  0.2947E-03
   (  4, 35, 35)  (  3, 40, 27)  (  3, 40, 27)  (  3, 40, 27)  (  3, 40, 27)
  0 -0.2273E-03  0 -0.1982E-03  0 -0.1811E-03  0 -0.1460E-03  0 -0.1152E-03
   (  3, 35, 35)  (  3, 35, 35)  (  3, 35, 35)  (  3, 35, 35)  (  3, 35, 35)
  0 -0.1054E-03  0 -0.8184E-04  0 -0.6071E-04  0 -0.5038E-04  0 -0.4560E-04
   (  3, 35, 35)  (  4, 43,  4)  (  4, 43,  4)  (  4, 34, 35)  (  4, 34, 35)
  0 -0.4033E-04  0 -0.3462E-04  0 -0.3251E-04  0 -0.2574E-04  0 -0.2033E-04
   (  4, 34, 35)  (  4, 34, 35)  (  4, 34, 35)  (  4, 34, 35)  (  4, 34, 35)
  0 -0.1578E-04  0 -0.1500E-04  0 -0.1115E-04  0 -0.7915E-05  0 -0.6079E-05
   (  4, 34, 35)  (  4, 34, 35)  (  4, 34, 35)  (  4, 34, 35)  (  4, 34, 35)
  1 -0.6006E-05  0 -0.5883E-05  0 -0.5142E-05  0 -0.4034E-05  0 -0.3563E-05
   (  4, 34, 35)  (  4, 34, 35)  (  4, 34, 35)  (  4, 34, 35)  (  4, 34, 35)
  0 -0.3065E-05  0 -0.2315E-05  0 -0.1759E-05  0 -0.1460E-05  0  0.1218E-05
   (  4, 34, 35)  (  4, 34, 35)  (  4, 34, 35)  (  4, 34, 35)  (  4, 35, 35)
  0  0.1036E-05  0  0.1007E-05  0  0.8721E-06  0  0.7098E-06  0  0.5503E-06
   (  4, 35, 35)  (  4, 35, 35)  (  4, 35, 35)  (  4, 35, 35)  (  4, 35, 35)
  0  0.4322E-06  0  0.3994E-06  0  0.2931E-06  0  0.2156E-06  0  0.1825E-06
   (  4, 35, 35)  (  4, 35, 35)  (  4, 35, 35)  (  4, 35, 35)  (  4, 35, 35)
  0  0.1536E-06  0  0.1413E-06  0  0.1114E-06  0  0.7779E-07  0  0.5699E-07
   (  4, 35, 35)  (  4, 35, 35)  (  4, 35, 35)  (  4, 35, 35)  (  4, 35, 35)
  0  0.4710E-07  0  0.4007E-07  0  0.3053E-07  0  0.2772E-07  0  0.1901E-07
   (  4, 35, 35)  (  4, 35, 35)  (  4, 35, 35)  (  4, 35, 35)  (  4, 35, 35)
  1  0.1852E-07  0  0.1774E-07  0  0.1655E-07  0  0.1423E-07  0  0.1196E-07
   (  4, 35, 35)  (  4, 35, 35)  (  4, 35, 35)  (  4, 35, 35)  (  4, 35, 35)
  0  0.1077E-07  0  0.9610E-08  0  0.8686E-08  1  0.8426E-08
   (  4, 35, 35)  (  4, 35, 35)  (  4, 35, 35)  (  4, 35, 35)



 OUTPUT CONTROL FOR STRESS PERIOD  124   TIME STEP    3
    SAVE HEAD FOR ALL LAYERS
    SAVE DRAWDOWN FOR ALL LAYERS
    SAVE BUDGET
    PRINT BUDGET
 UBDSV1 SAVING "         STORAGE" ON UNIT   9 AT TIME STEP  3, STRESS PERIOD 124
 UBDSV2 SAVING "   CONSTANT HEAD" ON UNIT   9 AT TIME STEP  3, STRESS PERIOD 124
 UBDSV1 SAVING "FLOW RIGHT FACE " ON UNIT   9 AT TIME STEP  3, STRESS PERIOD 124
 UBDSV1 SAVING "FLOW FRONT FACE " ON UNIT   9 AT TIME STEP  3, STRESS PERIOD 124
 UBDSV1 SAVING "FLOW LOWER FACE " ON UNIT   9 AT TIME STEP  3, STRESS PERIOD 124
 UBDSV3 SAVING "        RECHARGE" ON UNIT   9 AT TIME STEP  3, STRESS PERIOD 124

 HEAD WILL BE SAVED ON UNIT   37 AT END OF TIME STEP    3, STRESS PERIOD  124

 DRAWDOWN WILL BE SAVED ON UNIT   38 AT END OF TIME STEP    3, STRESS PERIOD  124
1
  VOLUMETRIC BUDGET FOR ENTIRE MODEL AT END OF TIME STEP    3, STRESS PERIOD 124
  ------------------------------------------------------------------------------

     CUMULATIVE VOLUMES      L**3       RATES FOR THIS TIME STEP      L**3/T
     ------------------                 ------------------------

           IN:                                      IN:
           ---                                      ---
             STORAGE =       18962.1035               STORAGE =       2.9841E-03
       CONSTANT HEAD =       32173.8652         CONSTANT HEAD =       1.5524E-03
            RECHARGE =        1544.1901              RECHARGE =       1.0213E-04

            TOTAL IN =       52680.1602              TOTAL IN =       4.6386E-03

          OUT:                                     OUT:
          ----                                     ----
             STORAGE =       15897.1396               STORAGE =           0.0000
       CONSTANT HEAD =       36784.6133         CONSTANT HEAD =       4.6388E-03
            RECHARGE =           0.0000              RECHARGE =           0.0000

           TOTAL OUT =       52681.7539             TOTAL OUT =       4.6388E-03

            IN - OUT =          -1.5938              IN - OUT =      -1.7975E-07

 PERCENT DISCREPANCY =          -0.00     PERCENT DISCREPANCY =          -0.00






         TIME SUMMARY AT END OF TIME STEP    3 IN STRESS PERIOD  124
                    SECONDS     MINUTES      HOURS       DAYS        YEARS
                    -----------------------------------------------------------
   TIME STEP LENGTH  86400.      1440.0      24.000      1.0000     2.73785E-03
 STRESS PERIOD TIME 2.59200E+05  4320.0      72.000      3.0000     8.21355E-03
         TOTAL TIME 1.51200E+07 2.52000E+05  4200.0      175.00     0.47912    
1
1
                            STRESS PERIOD NO.  125, LENGTH =   86400.00    
                            -----------------------------------------------

                              NUMBER OF TIME STEPS =     1

                               MULTIPLIER FOR DELT =     1.000

                            INITIAL TIME STEP SIZE =   86400.00    

 REUSING RECH FROM LAST STRESS PERIOD

 CHD NO.   LAYER   ROW   COL    START HEAD        END HEAD         IFACE           
 ----------------------------------------------------------------------------------
      1      4      3      1       110.1           110.0           0.000    
      2      5      3      1       110.1           110.0           0.000    
      3      4      3      2       110.1           110.0           0.000    
      4      5      3      2       110.1           110.0           0.000    
      5      4      3      3       110.1           110.0           0.000    
      6      5      3      3       110.1           110.0           0.000    
      7      4      3      4       110.1           110.0           0.000    
      8      5      3      4       110.1           110.0           0.000    
      9      4      3      5       110.1           110.0           0.000    
     10      5      3      5       110.1           110.0           0.000    
     11      4      3      6       110.1           110.0           0.000    
     12      5      3      6       110.1           110.0           0.000    
     13      4      3      7       110.1           110.0           0.000    
     14      5      3      7       110.1           110.0           0.000    
     15      4      3      8       110.1           110.0           0.000    
     16      5      3      8       110.1           110.0           0.000    
     17      4      2      8       110.1           110.0           0.000    
     18      5      2      8       110.1           110.0           0.000    
     19      4      2      9       110.1           110.0           0.000    
     20      5      2      9       110.1           110.0           0.000    
     21      4      2     10       110.1           110.0           0.000    
     22      5      2     10       110.1           110.0           0.000    
     23      4      2     11       110.1           110.0           0.000    
     24      5      2     11       110.1           110.0           0.000    
     25      4      2     12       110.1           110.0           0.000    
     26      5      2     12       110.1           110.0           0.000    
     27      4      2     13       110.1           110.0           0.000    
     28      5      2     13       110.1           110.0           0.000    
     29      4      2     14       110.1           110.0           0.000    
     30      5      2     14       110.1           110.0           0.000    
     31      4      2     15       110.1           110.0           0.000    
     32      5      2     15       110.1           110.0           0.000    
     33      4      2     16       110.1           110.0           0.000    
     34      5      2     16       110.1           110.0           0.000    
     35      4      2     17       110.1           110.0           0.000    
     36      5      2     17       110.1           110.0           0.000    
     37      4      2     18       110.1           110.0           0.000    
     38      5      2     18       110.1           110.0           0.000    
     39      4      2     19       110.1           110.0           0.000    
     40      5      2     19       110.1           110.0           0.000    
     41      4      2     20       110.1           110.0           0.000    
     42      5      2     20       110.1           110.0           0.000    
     43      4      2     21       110.1           110.0           0.000    
     44      5      2     21       110.1           110.0           0.000    
     45      4      2     22       110.1           110.0           0.000    
     46      5      2     22       110.1           110.0           0.000    
     47      4      2     23       110.1           110.0           0.000    
     48      5      2     23       110.1           110.0           0.000    
     49      4      2     24       110.1           110.0           0.000    
     50      5      2     24       110.1           110.0           0.000    
     51      4      2     25       110.1           110.0           0.000    
     52      5      2     25       110.1           110.0           0.000    
     53      4      2     26       110.1           110.0           0.000    
     54      5      2     26       110.1           110.0           0.000    
     55      4      1     26       110.1           110.0           0.000    
     56      5      1     26       110.1           110.0           0.000    
     57      4      1     27       110.1           110.0           0.000    
     58      5      1     27       110.1           110.0           0.000    
     59      4      1     28       110.1           110.0           0.000    
     60      5      1     28       110.1           110.0           0.000    
     61      4      1     29       110.1           110.0           0.000    
     62      5      1     29       110.1           110.0           0.000    
     63      4      1     30       110.1           110.0           0.000    
     64      5      1     30       110.1           110.0           0.000    
     65      4      1     31       110.1           110.0           0.000    
     66      5      1     31       110.1           110.0           0.000    
     67      4      1     32       110.1           110.0           0.000    
     68      5      1     32       110.1           110.0           0.000    
     69      4      1     33       110.1           110.0           0.000    
     70      5      1     33       110.1           110.0           0.000    
     71      4      1     34       110.1           110.0           0.000    
     72      5      1     34       110.1           110.0           0.000    
     73      4      1     35       110.1           110.0           0.000    
     74      5      1     35       110.1           110.0           0.000    
     75      4     36     35       109.8           109.8           0.000    
     76      5     36     35       109.8           109.8           0.000    
     77      4     35     34       109.8           109.8           0.000    
     78      5     35     34       109.8           109.8           0.000    
     79      4     36     34       109.8           109.8           0.000    
     80      5     36     34       109.8           109.8           0.000    
     81      4     36     33       109.8           109.8           0.000    
     82      5     36     33       109.8           109.8           0.000    
     83      4     36     32       109.8           109.8           0.000    
     84      5     36     32       109.8           109.8           0.000    
     85      4     37     32       109.8           109.8           0.000    
     86      5     37     32       109.8           109.8           0.000    
     87      4     37     31       109.8           109.8           0.000    
     88      5     37     31       109.8           109.8           0.000    
     89      4     38     31       109.8           109.8           0.000    
     90      5     38     31       109.8           109.8           0.000    
     91      4     38     30       109.8           109.8           0.000    
     92      5     38     30       109.8           109.8           0.000    
     93      4     39     30       109.8           109.8           0.000    
     94      5     39     30       109.8           109.8           0.000    
     95      4     39     29       109.8           109.8           0.000    
     96      5     39     29       109.8           109.8           0.000    
     97      4     40     29       109.8           109.8           0.000    
     98      5     40     29       109.8           109.8           0.000    
     99      4     40     28       109.8           109.8           0.000    
    100      5     40     28       109.8           109.8           0.000    
    101      4     40     27       109.8           109.8           0.000    
    102      5     40     27       109.8           109.8           0.000    
    103      4     41     27       109.8           109.8           0.000    
    104      5     41     27       109.8           109.8           0.000    
    105      4     41     26       109.8           109.8           0.000    
    106      5     41     26       109.8           109.8           0.000    
    107      4     41     25       109.8           109.8           0.000    
    108      5     41     25       109.8           109.8           0.000    
    109      4     41     24       109.8           109.8           0.000    
    110      5     41     24       109.8           109.8           0.000    
    111      4     41     23       109.8           109.8           0.000    
    112      5     41     23       109.8           109.8           0.000    
    113      4     41     22       109.8           109.8           0.000    
    114      5     41     22       109.8           109.8           0.000    
    115      4     42     22       109.8           109.8           0.000    
    116      5     42     22       109.8           109.8           0.000    
    117      4     42     21       109.8           109.8           0.000    
    118      5     42     21       109.8           109.8           0.000    
    119      4     42     20       109.8           109.8           0.000    
    120      5     42     20       109.8           109.8           0.000    
    121      4     42     19       109.8           109.8           0.000    
    122      5     42     19       109.8           109.8           0.000    
    123      4     43     18       109.8           109.8           0.000    
    124      5     43     18       109.8           109.8           0.000    
    125      4     42     18       109.8           109.8           0.000    
    126      5     42     18       109.8           109.8           0.000    
    127      4     42     17       109.8           109.8           0.000    
    128      5     42     17       109.8           109.8           0.000    
    129      4     42     16       109.8           109.8           0.000    
    130      5     42     16       109.8           109.8           0.000    
    131      4     42     15       109.8           109.8           0.000    
    132      5     42     15       109.8           109.8           0.000    
    133      4     43     15       109.8           109.8           0.000    
    134      5     43     15       109.8           109.8           0.000    
    135      4     43     14       109.8           109.8           0.000    
    136      5     43     14       109.8           109.8           0.000    
    137      4     43     13       109.8           109.8           0.000    
    138      5     43     13       109.8           109.8           0.000    
    139      4     43     12       109.8           109.8           0.000    
    140      5     43     12       109.8           109.8           0.000    
    141      4     43     11       109.8           109.8           0.000    
    142      5     43     11       109.8           109.8           0.000    
    143      4     43     10       109.8           109.8           0.000    
    144      5     43     10       109.8           109.8           0.000    
    145      4     44     10       109.8           109.8           0.000    
    146      5     44     10       109.8           109.8           0.000    
    147      4     44      9       109.8           109.8           0.000    
    148      5     44      9       109.8           109.8           0.000    
    149      4     44      8       109.8           109.8           0.000    
    150      5     44      8       109.8           109.8           0.000    
    151      4     44      7       109.8           109.8           0.000    
    152      5     44      7       109.8           109.8           0.000    
    153      4     44      6       109.8           109.8           0.000    
    154      5     44      6       109.8           109.8           0.000    
    155      4     44      5       109.8           109.8           0.000    
    156      5     44      5       109.8           109.8           0.000    
    157      4     44      4       109.8           109.8           0.000    
    158      5     44      4       109.8           109.8           0.000    
    159      4     44      3       109.8           109.8           0.000    
    160      5     44      3       109.8           109.8           0.000    
    161      4     45      3       109.8           109.8           0.000    
    162      5     45      3       109.8           109.8           0.000    
    163      4     45      2       109.8           109.8           0.000    
    164      5     45      2       109.8           109.8           0.000    
    165      4     45      1       109.8           109.8           0.000    
    166      5     45      1       109.8           109.8           0.000    


    166 TIME-VARIANT SPECIFIED-HEAD CELLS

 SOLVING FOR HEAD 


     3 CALLS TO PCG ROUTINE FOR TIME STEP   1 IN STRESS PERIOD  125
    61 TOTAL ITERATIONS

 MAXIMUM HEAD CHANGE FOR EACH ITERATION (1 INDICATES THE FIRST INNER ITERATION):

    HEAD CHANGE    HEAD CHANGE    HEAD CHANGE    HEAD CHANGE    HEAD CHANGE 
   LAYER,ROW,COL  LAYER,ROW,COL  LAYER,ROW,COL  LAYER,ROW,COL  LAYER,ROW,COL
 ---------------------------------------------------------------------------
  1 -0.1182      0  0.6037E-01  0  0.4870E-01  0 -0.3664E-01  0 -0.3672E-01
   (  5, 43,  5)  (  5, 34,  1)  (  5, 39,  2)  (  5, 35,  2)  (  5, 37,  1)
  0 -0.2921E-01  0 -0.2131E-01  0  0.2235E-01  0  0.1646E-01  0  0.1020E-01
   (  5, 39,  1)  (  5, 36,  6)  (  5, 37,  1)  (  5, 37,  6)  (  5, 40,  1)
  0  0.1106E-01  0  0.6834E-02  0 -0.7374E-02  0  0.7239E-02  0 -0.3914E-02
   (  5, 36, 10)  (  5, 30,  3)  (  5, 32,  9)  (  5, 29,  8)  (  5, 36,  8)
  0 -0.3214E-02  0  0.2960E-02  0  0.2760E-02  0 -0.1790E-02  0  0.1967E-02
   (  5, 34,  1)  (  5, 36,  4)  (  5, 15,  1)  (  5, 38,  7)  (  5, 38,  4)
  0 -0.1250E-02  0  0.8261E-03  0 -0.6756E-03  0 -0.9923E-03  0  0.7059E-03
   (  5, 37,  1)  (  5, 32,  3)  (  5, 29,  1)  (  5, 14,  2)  (  5, 13,  1)
  0 -0.5750E-03  0  0.3382E-03  0 -0.3163E-03  0 -0.2643E-03  0  0.1693E-03
   (  5, 12,  1)  (  5, 37,  1)  (  5, 33,  3)  (  5, 40,  2)  (  5, 39,  2)
  1 -0.1368E-03  0 -0.1501E-03  0  0.1776E-03  0 -0.1203E-03  0 -0.2116E-03
   (  5, 19,  8)  (  5, 30,  1)  (  5, 39,  1)  (  5, 27,  4)  (  5, 37,  1)
  0  0.1761E-03  0 -0.7933E-04  0 -0.8205E-04  0 -0.5215E-04  0 -0.6184E-04
   (  5, 38,  3)  (  5, 26,  6)  (  5, 40,  5)  (  5, 25, 10)  (  5, 33,  1)
  0 -0.4362E-04  0  0.4183E-04  0 -0.2312E-04  0  0.2030E-04  0 -0.2174E-04
   (  5, 39,  1)  (  5, 41,  2)  (  5, 30,  1)  (  5, 30,  3)  (  5, 31,  9)
  0  0.1475E-04  0 -0.9279E-05  0 -0.1259E-04  0  0.1001E-04  0 -0.9702E-05
   (  5, 39,  1)  (  5, 36,  1)  (  5, 32,  9)  (  5, 34,  8)  (  5, 37,  9)
  0 -0.4347E-05  0 -0.5616E-05  0  0.3101E-05  0 -0.4151E-05  0  0.2406E-05
   (  5, 39,  3)  (  5, 30,  1)  (  5, 30,  2)  (  5, 35,  6)  (  5, 32,  8)
  0  0.2209E-05  0 -0.1762E-05  0  0.1466E-05  0 -0.1063E-05  0  0.6051E-06
   (  5, 40,  2)  (  5, 41,  5)  (  5, 37,  1)  (  5, 35,  1)  (  5, 33,  1)
  1 -0.4556E-06
   (  5, 36,  5)

 MAXIMUM RESIDUAL FOR EACH ITERATION (1 INDICATES THE FIRST INNER ITERATION):

    RESIDUAL       RESIDUAL       RESIDUAL       RESIDUAL       RESIDUAL    
   LAYER,ROW,COL  LAYER,ROW,COL  LAYER,ROW,COL  LAYER,ROW,COL  LAYER,ROW,COL
 ---------------------------------------------------------------------------
  1  0.3393E-03  0  0.2853E-03  0  0.2535E-03  0  0.2217E-03  0  0.1876E-03
   (  3,  3,  1)  (  3,  3,  1)  (  3,  3,  1)  (  3,  3,  1)  (  3,  3,  1)
  0  0.1585E-03  0 -0.1318E-03  0 -0.1114E-03  0 -0.8975E-04  0 -0.7332E-04
   (  3,  3,  1)  (  4, 43,  5)  (  4, 43,  5)  (  4, 43,  4)  (  4, 43,  4)
  0 -0.5750E-04  0 -0.5081E-04  0 -0.4697E-04  0 -0.3899E-04  0 -0.3178E-04
   (  4, 43,  4)  (  4, 43,  4)  (  4, 44,  2)  (  4, 44,  2)  (  4, 44,  2)
  0 -0.2933E-04  0 -0.2385E-04  0 -0.1868E-04  0 -0.1489E-04  0 -0.1188E-04
   (  4, 44,  2)  (  4, 44,  2)  (  4, 44,  2)  (  4, 44,  2)  (  4, 44,  2)
  0 -0.1038E-04  0 -0.8135E-05  0 -0.7571E-05  0 -0.5321E-05  0 -0.3324E-05
   (  4, 44,  2)  (  4, 44,  2)  (  4, 44,  2)  (  4, 44,  2)  (  4, 44,  2)
  0 -0.2329E-05  0 -0.2134E-05  0 -0.1838E-05  0 -0.1563E-05  0 -0.1193E-05
   (  3,  3,  2)  (  3,  3,  2)  (  3,  3,  2)  (  3,  3,  2)  (  3,  3,  2)
  1 -0.1150E-05  0 -0.1099E-05  0 -0.9428E-06  0 -0.8778E-06  0 -0.7687E-06
   (  3,  3,  2)  (  3,  3,  2)  (  3,  3,  2)  (  3,  3,  2)  (  3,  3,  2)
  0 -0.6375E-06  0 -0.5604E-06  0 -0.4448E-06  0 -0.3756E-06  0 -0.3073E-06
   (  3,  3,  2)  (  3,  3,  2)  (  3,  3,  2)  (  3,  3,  2)  (  3,  3,  2)
  0 -0.2441E-06  0 -0.1964E-06  0  0.1689E-06  0  0.1502E-06  0  0.1153E-06
   (  3,  3,  2)  (  3,  3,  2)  (  3,  3,  1)  (  3,  3,  1)  (  3,  3,  1)
  0  0.9194E-07  0  0.8487E-07  0  0.6315E-07  0  0.4668E-07  0  0.3531E-07
   (  3,  3,  1)  (  3,  3,  1)  (  3,  3,  1)  (  3,  3,  1)  (  3,  3,  1)
  0  0.3113E-07  0  0.2431E-07  0  0.2202E-07  0  0.1745E-07  0  0.1331E-07
   (  3,  3,  1)  (  3,  3,  1)  (  3,  3,  1)  (  3,  3,  1)  (  3,  3,  1)
  0  0.9841E-08  0  0.7594E-08  0  0.6475E-08  0  0.4615E-08  0  0.4252E-08
   (  3,  3,  1)  (  3,  3,  1)  (  3,  3,  1)  (  3,  3,  1)  (  3,  3,  1)
  1  0.4172E-08
   (  3,  3,  1)



 OUTPUT CONTROL FOR STRESS PERIOD  125   TIME STEP    1
    SAVE HEAD FOR ALL LAYERS
    SAVE DRAWDOWN FOR ALL LAYERS
    SAVE BUDGET
    PRINT BUDGET
 UBDSV1 SAVING "         STORAGE" ON UNIT   9 AT TIME STEP  1, STRESS PERIOD 125
 UBDSV2 SAVING "   CONSTANT HEAD" ON UNIT   9 AT TIME STEP  1, STRESS PERIOD 125
 UBDSV1 SAVING "FLOW RIGHT FACE " ON UNIT   9 AT TIME STEP  1, STRESS PERIOD 125
 UBDSV1 SAVING "FLOW FRONT FACE " ON UNIT   9 AT TIME STEP  1, STRESS PERIOD 125
 UBDSV1 SAVING "FLOW LOWER FACE " ON UNIT   9 AT TIME STEP  1, STRESS PERIOD 125
 UBDSV3 SAVING "        RECHARGE" ON UNIT   9 AT TIME STEP  1, STRESS PERIOD 125

 HEAD WILL BE SAVED ON UNIT   37 AT END OF TIME STEP    1, STRESS PERIOD  125

 DRAWDOWN WILL BE SAVED ON UNIT   38 AT END OF TIME STEP    1, STRESS PERIOD  125
1
  VOLUMETRIC BUDGET FOR ENTIRE MODEL AT END OF TIME STEP    1, STRESS PERIOD 125
  ------------------------------------------------------------------------------

     CUMULATIVE VOLUMES      L**3       RATES FOR THIS TIME STEP      L**3/T
     ------------------                 ------------------------

           IN:                                      IN:
           ---                                      ---
             STORAGE =       19130.9043               STORAGE =       1.9537E-03
       CONSTANT HEAD =       32293.6582         CONSTANT HEAD =       1.3865E-03
            RECHARGE =        1553.0140              RECHARGE =       1.0213E-04

            TOTAL IN =       52977.5781              TOTAL IN =       3.4423E-03

          OUT:                                     OUT:
          ----                                     ----
             STORAGE =       15897.1396               STORAGE =           0.0000
       CONSTANT HEAD =       37082.0469         CONSTANT HEAD =       3.4425E-03
            RECHARGE =           0.0000              RECHARGE =           0.0000

           TOTAL OUT =       52979.1875             TOTAL OUT =       3.4425E-03

            IN - OUT =          -1.6094              IN - OUT =      -1.9651E-07

 PERCENT DISCREPANCY =          -0.00     PERCENT DISCREPANCY =          -0.01






         TIME SUMMARY AT END OF TIME STEP    1 IN STRESS PERIOD  125
                    SECONDS     MINUTES      HOURS       DAYS        YEARS
                    -----------------------------------------------------------
   TIME STEP LENGTH  86400.      1440.0      24.000      1.0000     2.73785E-03
 STRESS PERIOD TIME  86400.      1440.0      24.000      1.0000     2.73785E-03
         TOTAL TIME 1.52064E+07 2.53440E+05  4224.0      176.00     0.48186    
1
1
                            STRESS PERIOD NO.  126, LENGTH =   86400.00    
                            -----------------------------------------------

                              NUMBER OF TIME STEPS =     1

                               MULTIPLIER FOR DELT =     1.000

                            INITIAL TIME STEP SIZE =   86400.00    

 REUSING RECH FROM LAST STRESS PERIOD

 CHD NO.   LAYER   ROW   COL    START HEAD        END HEAD         IFACE           
 ----------------------------------------------------------------------------------
      1      4      3      1       110.0           110.0           0.000    
      2      5      3      1       110.0           110.0           0.000    
      3      4      3      2       110.0           110.0           0.000    
      4      5      3      2       110.0           110.0           0.000    
      5      4      3      3       110.0           110.0           0.000    
      6      5      3      3       110.0           110.0           0.000    
      7      4      3      4       110.0           110.0           0.000    
      8      5      3      4       110.0           110.0           0.000    
      9      4      3      5       110.0           110.0           0.000    
     10      5      3      5       110.0           110.0           0.000    
     11      4      3      6       110.0           110.0           0.000    
     12      5      3      6       110.0           110.0           0.000    
     13      4      3      7       110.0           110.0           0.000    
     14      5      3      7       110.0           110.0           0.000    
     15      4      3      8       110.0           110.0           0.000    
     16      5      3      8       110.0           110.0           0.000    
     17      4      2      8       110.0           110.0           0.000    
     18      5      2      8       110.0           110.0           0.000    
     19      4      2      9       110.0           110.0           0.000    
     20      5      2      9       110.0           110.0           0.000    
     21      4      2     10       110.0           110.0           0.000    
     22      5      2     10       110.0           110.0           0.000    
     23      4      2     11       110.0           110.0           0.000    
     24      5      2     11       110.0           110.0           0.000    
     25      4      2     12       110.0           110.0           0.000    
     26      5      2     12       110.0           110.0           0.000    
     27      4      2     13       110.0           110.0           0.000    
     28      5      2     13       110.0           110.0           0.000    
     29      4      2     14       110.0           110.0           0.000    
     30      5      2     14       110.0           110.0           0.000    
     31      4      2     15       110.0           110.0           0.000    
     32      5      2     15       110.0           110.0           0.000    
     33      4      2     16       110.0           110.0           0.000    
     34      5      2     16       110.0           110.0           0.000    
     35      4      2     17       110.0           110.0           0.000    
     36      5      2     17       110.0           110.0           0.000    
     37      4      2     18       110.0           110.0           0.000    
     38      5      2     18       110.0           110.0           0.000    
     39      4      2     19       110.0           110.0           0.000    
     40      5      2     19       110.0           110.0           0.000    
     41      4      2     20       110.0           110.0           0.000    
     42      5      2     20       110.0           110.0           0.000    
     43      4      2     21       110.0           110.0           0.000    
     44      5      2     21       110.0           110.0           0.000    
     45      4      2     22       110.0           110.0           0.000    
     46      5      2     22       110.0           110.0           0.000    
     47      4      2     23       110.0           110.0           0.000    
     48      5      2     23       110.0           110.0           0.000    
     49      4      2     24       110.0           110.0           0.000    
     50      5      2     24       110.0           110.0           0.000    
     51      4      2     25       110.0           110.0           0.000    
     52      5      2     25       110.0           110.0           0.000    
     53      4      2     26       110.0           110.0           0.000    
     54      5      2     26       110.0           110.0           0.000    
     55      4      1     26       110.0           110.0           0.000    
     56      5      1     26       110.0           110.0           0.000    
     57      4      1     27       110.0           110.0           0.000    
     58      5      1     27       110.0           110.0           0.000    
     59      4      1     28       110.0           110.0           0.000    
     60      5      1     28       110.0           110.0           0.000    
     61      4      1     29       110.0           110.0           0.000    
     62      5      1     29       110.0           110.0           0.000    
     63      4      1     30       110.0           110.0           0.000    
     64      5      1     30       110.0           110.0           0.000    
     65      4      1     31       110.0           110.0           0.000    
     66      5      1     31       110.0           110.0           0.000    
     67      4      1     32       110.0           110.0           0.000    
     68      5      1     32       110.0           110.0           0.000    
     69      4      1     33       110.0           110.0           0.000    
     70      5      1     33       110.0           110.0           0.000    
     71      4      1     34       110.0           110.0           0.000    
     72      5      1     34       110.0           110.0           0.000    
     73      4      1     35       110.0           110.0           0.000    
     74      5      1     35       110.0           110.0           0.000    
     75      4     36     35       109.8           109.8           0.000    
     76      5     36     35       109.8           109.8           0.000    
     77      4     35     34       109.8           109.8           0.000    
     78      5     35     34       109.8           109.8           0.000    
     79      4     36     34       109.8           109.8           0.000    
     80      5     36     34       109.8           109.8           0.000    
     81      4     36     33       109.8           109.8           0.000    
     82      5     36     33       109.8           109.8           0.000    
     83      4     36     32       109.8           109.8           0.000    
     84      5     36     32       109.8           109.8           0.000    
     85      4     37     32       109.8           109.8           0.000    
     86      5     37     32       109.8           109.8           0.000    
     87      4     37     31       109.8           109.8           0.000    
     88      5     37     31       109.8           109.8           0.000    
     89      4     38     31       109.8           109.8           0.000    
     90      5     38     31       109.8           109.8           0.000    
     91      4     38     30       109.8           109.8           0.000    
     92      5     38     30       109.8           109.8           0.000    
     93      4     39     30       109.8           109.8           0.000    
     94      5     39     30       109.8           109.8           0.000    
     95      4     39     29       109.8           109.8           0.000    
     96      5     39     29       109.8           109.8           0.000    
     97      4     40     29       109.8           109.8           0.000    
     98      5     40     29       109.8           109.8           0.000    
     99      4     40     28       109.8           109.8           0.000    
    100      5     40     28       109.8           109.8           0.000    
    101      4     40     27       109.8           109.8           0.000    
    102      5     40     27       109.8           109.8           0.000    
    103      4     41     27       109.8           109.8           0.000    
    104      5     41     27       109.8           109.8           0.000    
    105      4     41     26       109.8           109.8           0.000    
    106      5     41     26       109.8           109.8           0.000    
    107      4     41     25       109.8           109.8           0.000    
    108      5     41     25       109.8           109.8           0.000    
    109      4     41     24       109.8           109.8           0.000    
    110      5     41     24       109.8           109.8           0.000    
    111      4     41     23       109.8           109.8           0.000    
    112      5     41     23       109.8           109.8           0.000    
    113      4     41     22       109.8           109.8           0.000    
    114      5     41     22       109.8           109.8           0.000    
    115      4     42     22       109.8           109.8           0.000    
    116      5     42     22       109.8           109.8           0.000    
    117      4     42     21       109.8           109.8           0.000    
    118      5     42     21       109.8           109.8           0.000    
    119      4     42     20       109.8           109.8           0.000    
    120      5     42     20       109.8           109.8           0.000    
    121      4     42     19       109.8           109.8           0.000    
    122      5     42     19       109.8           109.8           0.000    
    123      4     43     18       109.8           109.8           0.000    
    124      5     43     18       109.8           109.8           0.000    
    125      4     42     18       109.8           109.8           0.000    
    126      5     42     18       109.8           109.8           0.000    
    127      4     42     17       109.8           109.8           0.000    
    128      5     42     17       109.8           109.8           0.000    
    129      4     42     16       109.8           109.8           0.000    
    130      5     42     16       109.8           109.8           0.000    
    131      4     42     15       109.8           109.8           0.000    
    132      5     42     15       109.8           109.8           0.000    
    133      4     43     15       109.8           109.8           0.000    
    134      5     43     15       109.8           109.8           0.000    
    135      4     43     14       109.8           109.8           0.000    
    136      5     43     14       109.8           109.8           0.000    
    137      4     43     13       109.8           109.8           0.000    
    138      5     43     13       109.8           109.8           0.000    
    139      4     43     12       109.8           109.8           0.000    
    140      5     43     12       109.8           109.8           0.000    
    141      4     43     11       109.8           109.8           0.000    
    142      5     43     11       109.8           109.8           0.000    
    143      4     43     10       109.8           109.8           0.000    
    144      5     43     10       109.8           109.8           0.000    
    145      4     44     10       109.8           109.8           0.000    
    146      5     44     10       109.8           109.8           0.000    
    147      4     44      9       109.8           109.8           0.000    
    148      5     44      9       109.8           109.8           0.000    
    149      4     44      8       109.8           109.8           0.000    
    150      5     44      8       109.8           109.8           0.000    
    151      4     44      7       109.8           109.8           0.000    
    152      5     44      7       109.8           109.8           0.000    
    153      4     44      6       109.8           109.8           0.000    
    154      5     44      6       109.8           109.8           0.000    
    155      4     44      5       109.8           109.8           0.000    
    156      5     44      5       109.8           109.8           0.000    
    157      4     44      4       109.8           109.8           0.000    
    158      5     44      4       109.8           109.8           0.000    
    159      4     44      3       109.8           109.8           0.000    
    160      5     44      3       109.8           109.8           0.000    
    161      4     45      3       109.8           109.8           0.000    
    162      5     45      3       109.8           109.8           0.000    
    163      4     45      2       109.8           109.8           0.000    
    164      5     45      2       109.8           109.8           0.000    
    165      4     45      1       109.8           109.8           0.000    
    166      5     45      1       109.8           109.8           0.000    


    166 TIME-VARIANT SPECIFIED-HEAD CELLS

 SOLVING FOR HEAD 


     3 CALLS TO PCG ROUTINE FOR TIME STEP   1 IN STRESS PERIOD  126
    58 TOTAL ITERATIONS

 MAXIMUM HEAD CHANGE FOR EACH ITERATION (1 INDICATES THE FIRST INNER ITERATION):

    HEAD CHANGE    HEAD CHANGE    HEAD CHANGE    HEAD CHANGE    HEAD CHANGE 
   LAYER,ROW,COL  LAYER,ROW,COL  LAYER,ROW,COL  LAYER,ROW,COL  LAYER,ROW,COL
 ---------------------------------------------------------------------------
  1  0.5551E-01  0 -0.3608E-01  0 -0.2765E-01  0 -0.2140E-01  0  0.2763E-01
   (  5, 43,  5)  (  5, 36,  1)  (  5, 40,  2)  (  5, 31,  3)  (  5, 37,  1)
  0 -0.2031E-01  0  0.1189E-01  0 -0.1647E-01  0 -0.1105E-01  0 -0.5868E-02
   (  5, 36,  2)  (  5, 40,  1)  (  5, 37,  1)  (  5, 37,  6)  (  5, 40,  1)
  0 -0.6629E-02  0 -0.5633E-02  0  0.4107E-02  0 -0.1963E-02  0 -0.3477E-02
   (  5, 33,  1)  (  5, 28, 11)  (  5, 34,  8)  (  5, 32,  3)  (  5, 33,  9)
  0  0.2202E-02  0  0.1567E-02  0 -0.1904E-02  0  0.1098E-02  0 -0.9389E-03
   (  5, 30,  8)  (  5, 34,  1)  (  5, 35,  8)  (  5, 34,  9)  (  5, 36,  7)
  0 -0.7298E-03  0 -0.4712E-03  0  0.4096E-03  0  0.2226E-03  0 -0.3259E-03
   (  5, 14,  1)  (  5, 35,  1)  (  5, 38,  2)  (  5, 31,  3)  (  5, 13,  1)
  0  0.1837E-03  0 -0.2184E-03  0  0.2017E-03  0 -0.1112E-03  0  0.9939E-04
   (  5, 13,  2)  (  5, 37,  1)  (  5, 40,  2)  (  5, 35,  3)  (  5, 35,  1)
  1  0.6735E-04  0  0.7676E-04  0 -0.7457E-04  0  0.5707E-04  0 -0.5195E-04
   (  5, 41,  2)  (  5, 35,  3)  (  5, 33,  4)  (  5, 29,  4)  (  5, 24,  5)
  0 -0.5150E-04  0 -0.4979E-04  0  0.5666E-04  0 -0.3283E-04  0  0.3984E-04
   (  5, 31,  5)  (  5, 37,  2)  (  5, 39,  5)  (  5, 37,  1)  (  5, 39,  1)
  0 -0.3570E-04  0  0.1525E-04  0 -0.1025E-04  0  0.1176E-04  0 -0.8788E-05
   (  5, 41,  2)  (  5, 39,  2)  (  5, 28,  2)  (  5, 30,  8)  (  5, 33,  4)
  0  0.6026E-05  0 -0.8041E-05  0 -0.6180E-05  0 -0.4133E-05  0 -0.2952E-05
   (  5, 35,  3)  (  5, 33,  1)  (  5, 35,  8)  (  5, 21, 10)  (  5, 14,  1)
  0 -0.2444E-05  0 -0.1449E-05  0 -0.1861E-05  0  0.1481E-05  0 -0.1304E-05
   (  5, 28, 11)  (  5, 29,  1)  (  5, 35,  1)  (  5, 38,  1)  (  5, 40,  1)
  0 -0.1201E-05  0  0.6037E-06  1 -0.6266E-06
   (  5, 37,  6)  (  5, 39,  5)  (  5, 34,  1)

 MAXIMUM RESIDUAL FOR EACH ITERATION (1 INDICATES THE FIRST INNER ITERATION):

    RESIDUAL       RESIDUAL       RESIDUAL       RESIDUAL       RESIDUAL    
   LAYER,ROW,COL  LAYER,ROW,COL  LAYER,ROW,COL  LAYER,ROW,COL  LAYER,ROW,COL
 ---------------------------------------------------------------------------
  1  0.2182E-03  0  0.1835E-03  0  0.1565E-03  0  0.1407E-03  0  0.1123E-03
   (  3,  3,  1)  (  3,  3,  1)  (  3,  3,  1)  (  3,  3,  1)  (  3,  3,  1)
  0  0.9285E-04  0  0.7854E-04  0  0.6507E-04  0  0.5312E-04  0  0.4561E-04
   (  3,  3,  1)  (  3,  3,  1)  (  4, 43,  5)  (  4, 43,  4)  (  4, 43,  4)
  0  0.3577E-04  0  0.3222E-04  0  0.2755E-04  0  0.2646E-04  0  0.2159E-04
   (  4, 44,  2)  (  4, 44,  2)  (  4, 44,  2)  (  4, 44,  2)  (  4, 44,  2)
  0  0.1790E-04  0  0.1601E-04  0  0.1187E-04  0  0.9040E-05  0  0.6166E-05
   (  4, 44,  2)  (  4, 44,  2)  (  4, 44,  2)  (  4, 44,  2)  (  4, 44,  2)
  0  0.3965E-05  0  0.3517E-05  0  0.2947E-05  0  0.2813E-05  0  0.2291E-05
   (  4, 44,  2)  (  4, 34, 35)  (  4, 34, 35)  (  4, 34, 35)  (  4, 34, 35)
  0  0.1789E-05  0  0.1557E-05  0  0.1227E-05  0  0.1133E-05  0  0.8055E-06
   (  4, 34, 35)  (  4, 34, 35)  (  4, 34, 35)  (  4, 34, 35)  (  4, 34, 35)
  1  0.7645E-06  0  0.7217E-06  0  0.6459E-06  0  0.6112E-06  0  0.5500E-06
   (  4, 34, 35)  (  4, 34, 35)  (  4, 34, 35)  (  4, 34, 35)  (  4, 34, 35)
  0 -0.4346E-06  0 -0.3919E-06  0 -0.2997E-06  0 -0.2407E-06  0 -0.1858E-06
   (  3,  3,  2)  (  3,  3,  2)  (  3,  3,  2)  (  3,  3,  2)  (  3,  3,  2)
  0 -0.1377E-06  0 -0.1041E-06  0 -0.9666E-07  0 -0.7253E-07  0  0.5646E-07
   (  3,  3,  2)  (  3,  3,  2)  (  3,  3,  2)  (  3,  3,  2)  (  3,  3,  1)
  0  0.5188E-07  0  0.4069E-07  0  0.2991E-07  0  0.2236E-07  0  0.1672E-07
   (  3,  3,  1)  (  3,  3,  1)  (  3,  3,  1)  (  3,  3,  1)  (  3,  3,  1)
  0  0.1332E-07  0  0.1261E-07  0  0.9755E-08  0  0.8741E-08  0  0.6634E-08
   (  3,  3,  1)  (  3,  3,  1)  (  3,  3,  1)  (  3,  3,  1)  (  3,  3,  1)
  0  0.4945E-08  0  0.4424E-08  1  0.4396E-08
   (  3,  3,  1)  (  3,  3,  1)  (  3,  3,  1)



 OUTPUT CONTROL FOR STRESS PERIOD  126   TIME STEP    1
    SAVE HEAD FOR ALL LAYERS
    SAVE DRAWDOWN FOR ALL LAYERS
    SAVE BUDGET
    PRINT BUDGET
 UBDSV1 SAVING "         STORAGE" ON UNIT   9 AT TIME STEP  1, STRESS PERIOD 126
 UBDSV2 SAVING "   CONSTANT HEAD" ON UNIT   9 AT TIME STEP  1, STRESS PERIOD 126
 UBDSV1 SAVING "FLOW RIGHT FACE " ON UNIT   9 AT TIME STEP  1, STRESS PERIOD 126
 UBDSV1 SAVING "FLOW FRONT FACE " ON UNIT   9 AT TIME STEP  1, STRESS PERIOD 126
 UBDSV1 SAVING "FLOW LOWER FACE " ON UNIT   9 AT TIME STEP  1, STRESS PERIOD 126
 UBDSV3 SAVING "        RECHARGE" ON UNIT   9 AT TIME STEP  1, STRESS PERIOD 126

 HEAD WILL BE SAVED ON UNIT   37 AT END OF TIME STEP    1, STRESS PERIOD  126

 DRAWDOWN WILL BE SAVED ON UNIT   38 AT END OF TIME STEP    1, STRESS PERIOD  126
1
  VOLUMETRIC BUDGET FOR ENTIRE MODEL AT END OF TIME STEP    1, STRESS PERIOD 126
  ------------------------------------------------------------------------------

     CUMULATIVE VOLUMES      L**3       RATES FOR THIS TIME STEP      L**3/T
     ------------------                 ------------------------

           IN:                                      IN:
           ---                                      ---
             STORAGE =       19192.7520               STORAGE =       7.1583E-04
       CONSTANT HEAD =       32422.1582         CONSTANT HEAD =       1.4873E-03
            RECHARGE =        1561.8380              RECHARGE =       1.0213E-04

            TOTAL IN =       53176.7500              TOTAL IN =       2.3052E-03

          OUT:                                     OUT:
          ----                                     ----
             STORAGE =       15899.9121               STORAGE =       3.2086E-05
       CONSTANT HEAD =       37278.4609         CONSTANT HEAD =       2.2733E-03
            RECHARGE =           0.0000              RECHARGE =           0.0000

           TOTAL OUT =       53178.3750             TOTAL OUT =       2.3054E-03

            IN - OUT =          -1.6250              IN - OUT =      -1.6065E-07

 PERCENT DISCREPANCY =          -0.00     PERCENT DISCREPANCY =          -0.01






         TIME SUMMARY AT END OF TIME STEP    1 IN STRESS PERIOD  126
                    SECONDS     MINUTES      HOURS       DAYS        YEARS
                    -----------------------------------------------------------
   TIME STEP LENGTH  86400.      1440.0      24.000      1.0000     2.73785E-03
 STRESS PERIOD TIME  86400.      1440.0      24.000      1.0000     2.73785E-03
         TOTAL TIME 1.52928E+07 2.54880E+05  4248.0      177.00     0.48460    
1
1
                            STRESS PERIOD NO.  127, LENGTH =   86400.00    
                            -----------------------------------------------

                              NUMBER OF TIME STEPS =     1

                               MULTIPLIER FOR DELT =     1.000

                            INITIAL TIME STEP SIZE =   86400.00    

 REUSING RECH FROM LAST STRESS PERIOD

 CHD NO.   LAYER   ROW   COL    START HEAD        END HEAD         IFACE           
 ----------------------------------------------------------------------------------
      1      4      3      1       110.0           110.0           0.000    
      2      5      3      1       110.0           110.0           0.000    
      3      4      3      2       110.0           110.0           0.000    
      4      5      3      2       110.0           110.0           0.000    
      5      4      3      3       110.0           110.0           0.000    
      6      5      3      3       110.0           110.0           0.000    
      7      4      3      4       110.0           110.0           0.000    
      8      5      3      4       110.0           110.0           0.000    
      9      4      3      5       110.0           110.0           0.000    
     10      5      3      5       110.0           110.0           0.000    
     11      4      3      6       110.0           110.0           0.000    
     12      5      3      6       110.0           110.0           0.000    
     13      4      3      7       110.0           110.0           0.000    
     14      5      3      7       110.0           110.0           0.000    
     15      4      3      8       110.0           110.0           0.000    
     16      5      3      8       110.0           110.0           0.000    
     17      4      2      8       110.0           110.0           0.000    
     18      5      2      8       110.0           110.0           0.000    
     19      4      2      9       110.0           110.0           0.000    
     20      5      2      9       110.0           110.0           0.000    
     21      4      2     10       110.0           110.0           0.000    
     22      5      2     10       110.0           110.0           0.000    
     23      4      2     11       110.0           110.0           0.000    
     24      5      2     11       110.0           110.0           0.000    
     25      4      2     12       110.0           110.0           0.000    
     26      5      2     12       110.0           110.0           0.000    
     27      4      2     13       110.0           110.0           0.000    
     28      5      2     13       110.0           110.0           0.000    
     29      4      2     14       110.0           110.0           0.000    
     30      5      2     14       110.0           110.0           0.000    
     31      4      2     15       110.0           110.0           0.000    
     32      5      2     15       110.0           110.0           0.000    
     33      4      2     16       110.0           110.0           0.000    
     34      5      2     16       110.0           110.0           0.000    
     35      4      2     17       110.0           110.0           0.000    
     36      5      2     17       110.0           110.0           0.000    
     37      4      2     18       110.0           110.0           0.000    
     38      5      2     18       110.0           110.0           0.000    
     39      4      2     19       110.0           110.0           0.000    
     40      5      2     19       110.0           110.0           0.000    
     41      4      2     20       110.0           110.0           0.000    
     42      5      2     20       110.0           110.0           0.000    
     43      4      2     21       110.0           110.0           0.000    
     44      5      2     21       110.0           110.0           0.000    
     45      4      2     22       110.0           110.0           0.000    
     46      5      2     22       110.0           110.0           0.000    
     47      4      2     23       110.0           110.0           0.000    
     48      5      2     23       110.0           110.0           0.000    
     49      4      2     24       110.0           110.0           0.000    
     50      5      2     24       110.0           110.0           0.000    
     51      4      2     25       110.0           110.0           0.000    
     52      5      2     25       110.0           110.0           0.000    
     53      4      2     26       110.0           110.0           0.000    
     54      5      2     26       110.0           110.0           0.000    
     55      4      1     26       110.0           110.0           0.000    
     56      5      1     26       110.0           110.0           0.000    
     57      4      1     27       110.0           110.0           0.000    
     58      5      1     27       110.0           110.0           0.000    
     59      4      1     28       110.0           110.0           0.000    
     60      5      1     28       110.0           110.0           0.000    
     61      4      1     29       110.0           110.0           0.000    
     62      5      1     29       110.0           110.0           0.000    
     63      4      1     30       110.0           110.0           0.000    
     64      5      1     30       110.0           110.0           0.000    
     65      4      1     31       110.0           110.0           0.000    
     66      5      1     31       110.0           110.0           0.000    
     67      4      1     32       110.0           110.0           0.000    
     68      5      1     32       110.0           110.0           0.000    
     69      4      1     33       110.0           110.0           0.000    
     70      5      1     33       110.0           110.0           0.000    
     71      4      1     34       110.0           110.0           0.000    
     72      5      1     34       110.0           110.0           0.000    
     73      4      1     35       110.0           110.0           0.000    
     74      5      1     35       110.0           110.0           0.000    
     75      4     36     35       109.8           109.8           0.000    
     76      5     36     35       109.8           109.8           0.000    
     77      4     35     34       109.8           109.8           0.000    
     78      5     35     34       109.8           109.8           0.000    
     79      4     36     34       109.8           109.8           0.000    
     80      5     36     34       109.8           109.8           0.000    
     81      4     36     33       109.8           109.8           0.000    
     82      5     36     33       109.8           109.8           0.000    
     83      4     36     32       109.8           109.8           0.000    
     84      5     36     32       109.8           109.8           0.000    
     85      4     37     32       109.8           109.8           0.000    
     86      5     37     32       109.8           109.8           0.000    
     87      4     37     31       109.8           109.8           0.000    
     88      5     37     31       109.8           109.8           0.000    
     89      4     38     31       109.8           109.8           0.000    
     90      5     38     31       109.8           109.8           0.000    
     91      4     38     30       109.8           109.8           0.000    
     92      5     38     30       109.8           109.8           0.000    
     93      4     39     30       109.8           109.8           0.000    
     94      5     39     30       109.8           109.8           0.000    
     95      4     39     29       109.8           109.8           0.000    
     96      5     39     29       109.8           109.8           0.000    
     97      4     40     29       109.8           109.8           0.000    
     98      5     40     29       109.8           109.8           0.000    
     99      4     40     28       109.8           109.8           0.000    
    100      5     40     28       109.8           109.8           0.000    
    101      4     40     27       109.8           109.8           0.000    
    102      5     40     27       109.8           109.8           0.000    
    103      4     41     27       109.8           109.8           0.000    
    104      5     41     27       109.8           109.8           0.000    
    105      4     41     26       109.8           109.8           0.000    
    106      5     41     26       109.8           109.8           0.000    
    107      4     41     25       109.8           109.8           0.000    
    108      5     41     25       109.8           109.8           0.000    
    109      4     41     24       109.8           109.8           0.000    
    110      5     41     24       109.8           109.8           0.000    
    111      4     41     23       109.8           109.8           0.000    
    112      5     41     23       109.8           109.8           0.000    
    113      4     41     22       109.8           109.8           0.000    
    114      5     41     22       109.8           109.8           0.000    
    115      4     42     22       109.8           109.8           0.000    
    116      5     42     22       109.8           109.8           0.000    
    117      4     42     21       109.8           109.8           0.000    
    118      5     42     21       109.8           109.8           0.000    
    119      4     42     20       109.8           109.8           0.000    
    120      5     42     20       109.8           109.8           0.000    
    121      4     42     19       109.8           109.8           0.000    
    122      5     42     19       109.8           109.8           0.000    
    123      4     43     18       109.8           109.8           0.000    
    124      5     43     18       109.8           109.8           0.000    
    125      4     42     18       109.8           109.8           0.000    
    126      5     42     18       109.8           109.8           0.000    
    127      4     42     17       109.8           109.8           0.000    
    128      5     42     17       109.8           109.8           0.000    
    129      4     42     16       109.8           109.8           0.000    
    130      5     42     16       109.8           109.8           0.000    
    131      4     42     15       109.8           109.8           0.000    
    132      5     42     15       109.8           109.8           0.000    
    133      4     43     15       109.8           109.8           0.000    
    134      5     43     15       109.8           109.8           0.000    
    135      4     43     14       109.8           109.8           0.000    
    136      5     43     14       109.8           109.8           0.000    
    137      4     43     13       109.8           109.8           0.000    
    138      5     43     13       109.8           109.8           0.000    
    139      4     43     12       109.8           109.8           0.000    
    140      5     43     12       109.8           109.8           0.000    
    141      4     43     11       109.8           109.8           0.000    
    142      5     43     11       109.8           109.8           0.000    
    143      4     43     10       109.8           109.8           0.000    
    144      5     43     10       109.8           109.8           0.000    
    145      4     44     10       109.8           109.8           0.000    
    146      5     44     10       109.8           109.8           0.000    
    147      4     44      9       109.8           109.8           0.000    
    148      5     44      9       109.8           109.8           0.000    
    149      4     44      8       109.8           109.8           0.000    
    150      5     44      8       109.8           109.8           0.000    
    151      4     44      7       109.8           109.8           0.000    
    152      5     44      7       109.8           109.8           0.000    
    153      4     44      6       109.8           109.8           0.000    
    154      5     44      6       109.8           109.8           0.000    
    155      4     44      5       109.8           109.8           0.000    
    156      5     44      5       109.8           109.8           0.000    
    157      4     44      4       109.8           109.8           0.000    
    158      5     44      4       109.8           109.8           0.000    
    159      4     44      3       109.8           109.8           0.000    
    160      5     44      3       109.8           109.8           0.000    
    161      4     45      3       109.8           109.8           0.000    
    162      5     45      3       109.8           109.8           0.000    
    163      4     45      2       109.8           109.8           0.000    
    164      5     45      2       109.8           109.8           0.000    
    165      4     45      1       109.8           109.8           0.000    
    166      5     45      1       109.8           109.8           0.000    


    166 TIME-VARIANT SPECIFIED-HEAD CELLS

 SOLVING FOR HEAD 


     3 CALLS TO PCG ROUTINE FOR TIME STEP   1 IN STRESS PERIOD  127
    52 TOTAL ITERATIONS

 MAXIMUM HEAD CHANGE FOR EACH ITERATION (1 INDICATES THE FIRST INNER ITERATION):

    HEAD CHANGE    HEAD CHANGE    HEAD CHANGE    HEAD CHANGE    HEAD CHANGE 
   LAYER,ROW,COL  LAYER,ROW,COL  LAYER,ROW,COL  LAYER,ROW,COL  LAYER,ROW,COL
 ---------------------------------------------------------------------------
  1  0.2160E-01  0 -0.1408E-01  0  0.1058E-01  0 -0.8031E-02  0  0.1255E-01
   (  5, 43,  5)  (  5, 35,  1)  (  5, 32,  2)  (  5, 28,  3)  (  5, 37,  1)
  0 -0.7870E-02  0  0.5106E-02  0 -0.6785E-02  0 -0.4139E-02  0 -0.2748E-02
   (  5, 36,  2)  (  5, 40,  1)  (  5, 37,  1)  (  5, 38,  6)  (  5, 35, 10)
  0  0.2168E-02  0 -0.1833E-02  0  0.1856E-02  0 -0.1648E-02  0 -0.1341E-02
   (  5, 38,  1)  (  5, 30,  4)  (  5, 32,  2)  (  5, 31,  9)  (  5, 38,  1)
  0  0.7879E-03  0 -0.1188E-02  0 -0.6422E-03  0 -0.4486E-03  0 -0.3846E-03
   (  5, 33,  1)  (  5, 37,  5)  (  5, 16,  1)  (  5, 24, 12)  (  5, 14,  1)
  0 -0.2059E-03  0  0.3228E-03  0 -0.2441E-03  0 -0.1894E-03  0  0.1685E-03
   (  5, 26,  1)  (  5, 32,  6)  (  5, 33,  8)  (  5, 36,  1)  (  5, 39,  1)
  0 -0.1316E-03  0  0.7982E-04  0  0.6930E-04  0 -0.7209E-04  0  0.6754E-04
   (  5, 37,  1)  (  5, 39,  2)  (  5, 34,  4)  (  5, 37,  1)  (  5, 35,  1)
  1  0.3237E-04  0 -0.3431E-04  0  0.3916E-04  0 -0.3391E-04  0  0.2576E-04
   (  5, 32,  3)  (  5, 27,  1)  (  5, 37,  1)  (  5, 39,  2)  (  5, 34,  3)
  0  0.2743E-04  0 -0.1481E-04  0  0.1864E-04  0  0.1211E-04  0  0.1200E-04
   (  5, 41,  2)  (  5, 26,  7)  (  5, 39,  5)  (  5, 33,  9)  (  5, 39,  1)
  0 -0.1354E-04  0 -0.5425E-05  0  0.8824E-05  0 -0.5630E-05  0  0.3985E-05
   (  5, 41,  2)  (  5, 27,  1)  (  5, 39,  2)  (  5, 32,  9)  (  5, 34,  9)
  0 -0.3655E-05  0 -0.2439E-05  0  0.2094E-05  0  0.1725E-05  0 -0.1384E-05
   (  5, 29,  6)  (  5, 37,  4)  (  5, 36,  1)  (  5, 14,  1)  (  5, 16,  1)
  0  0.6598E-06  1 -0.6906E-06
   (  5, 29,  2)  (  5, 29,  2)

 MAXIMUM RESIDUAL FOR EACH ITERATION (1 INDICATES THE FIRST INNER ITERATION):

    RESIDUAL       RESIDUAL       RESIDUAL       RESIDUAL       RESIDUAL    
   LAYER,ROW,COL  LAYER,ROW,COL  LAYER,ROW,COL  LAYER,ROW,COL  LAYER,ROW,COL
 ---------------------------------------------------------------------------
  1 -0.1332E-03  0 -0.1075E-03  0 -0.8946E-04  0 -0.7484E-04  0 -0.5613E-04
   (  4, 44,  2)  (  4, 44,  2)  (  4, 44,  2)  (  4, 44,  2)  (  3, 40, 27)
  0 -0.4676E-04  0 -0.3992E-04  0 -0.3066E-04  0 -0.2341E-04  0  0.1994E-04
   (  3, 40, 27)  (  3, 40, 27)  (  3, 40, 27)  (  4, 35, 35)  (  4, 43,  4)
  0  0.1649E-04  0  0.1504E-04  0  0.1302E-04  0  0.9854E-05  0  0.8650E-05
   (  4, 43,  4)  (  4, 43,  4)  (  4, 43,  4)  (  4, 43,  4)  (  4, 44,  2)
  0  0.8153E-05  0  0.6715E-05  0  0.5307E-05  0  0.4025E-05  0  0.2771E-05
   (  4, 44,  2)  (  4, 44,  2)  (  4, 44,  2)  (  4, 44,  2)  (  4, 44,  2)
  0  0.2614E-05  0  0.2186E-05  0  0.1908E-05  0  0.1705E-05  0  0.1406E-05
   (  4, 34, 35)  (  4, 34, 35)  (  4, 34, 35)  (  4, 34, 35)  (  4, 34, 35)
  0  0.1107E-05  0  0.9863E-06  0  0.8575E-06  0  0.7568E-06  0  0.5654E-06
   (  4, 34, 35)  (  4, 34, 35)  (  4, 34, 35)  (  4, 34, 35)  (  4, 34, 35)
  1  0.5515E-06  0  0.5274E-06  0  0.4516E-06  0  0.4192E-06  0  0.3804E-06
   (  4, 34, 35)  (  4, 34, 35)  (  4, 34, 35)  (  4, 34, 35)  (  4, 34, 35)
  0  0.3075E-06  0  0.2729E-06  0  0.1981E-06  0  0.1517E-06  0  0.1131E-06
   (  4, 34, 35)  (  4, 34, 35)  (  4, 34, 35)  (  4, 34, 35)  (  4, 34, 35)
  0  0.8576E-07  0  0.7827E-07  0  0.5837E-07  0 -0.4570E-07  0 -0.3793E-07
   (  4, 34, 35)  (  4, 34, 35)  (  4, 34, 35)  (  4, 35, 35)  (  4, 35, 35)
  0 -0.2973E-07  0 -0.2634E-07  0 -0.2093E-07  0 -0.1570E-07  0 -0.1160E-07
   (  4, 35, 35)  (  4, 35, 35)  (  4, 35, 35)  (  4, 35, 35)  (  4, 35, 35)
  0 -0.1094E-07  1 -0.1086E-07
   (  4, 35, 35)  (  4, 35, 35)



 OUTPUT CONTROL FOR STRESS PERIOD  127   TIME STEP    1
    SAVE HEAD FOR ALL LAYERS
    SAVE DRAWDOWN FOR ALL LAYERS
    SAVE BUDGET
    PRINT BUDGET
 UBDSV1 SAVING "         STORAGE" ON UNIT   9 AT TIME STEP  1, STRESS PERIOD 127
 UBDSV2 SAVING "   CONSTANT HEAD" ON UNIT   9 AT TIME STEP  1, STRESS PERIOD 127
 UBDSV1 SAVING "FLOW RIGHT FACE " ON UNIT   9 AT TIME STEP  1, STRESS PERIOD 127
 UBDSV1 SAVING "FLOW FRONT FACE " ON UNIT   9 AT TIME STEP  1, STRESS PERIOD 127
 UBDSV1 SAVING "FLOW LOWER FACE " ON UNIT   9 AT TIME STEP  1, STRESS PERIOD 127
 UBDSV3 SAVING "        RECHARGE" ON UNIT   9 AT TIME STEP  1, STRESS PERIOD 127

 HEAD WILL BE SAVED ON UNIT   37 AT END OF TIME STEP    1, STRESS PERIOD  127

 DRAWDOWN WILL BE SAVED ON UNIT   38 AT END OF TIME STEP    1, STRESS PERIOD  127
1
  VOLUMETRIC BUDGET FOR ENTIRE MODEL AT END OF TIME STEP    1, STRESS PERIOD 127
  ------------------------------------------------------------------------------

     CUMULATIVE VOLUMES      L**3       RATES FOR THIS TIME STEP      L**3/T
     ------------------                 ------------------------

           IN:                                      IN:
           ---                                      ---
             STORAGE =       19209.4453               STORAGE =       1.9321E-04
       CONSTANT HEAD =       32566.5430         CONSTANT HEAD =       1.6711E-03
            RECHARGE =        1570.6620              RECHARGE =       1.0213E-04

            TOTAL IN =       53346.6484              TOTAL IN =       1.9665E-03

          OUT:                                     OUT:
          ----                                     ----
             STORAGE =       15903.8359               STORAGE =       4.5412E-05
       CONSTANT HEAD =       37444.4531         CONSTANT HEAD =       1.9212E-03
            RECHARGE =           0.0000              RECHARGE =           0.0000

           TOTAL OUT =       53348.2891             TOTAL OUT =       1.9666E-03

            IN - OUT =          -1.6406              IN - OUT =      -1.6880E-07

 PERCENT DISCREPANCY =          -0.00     PERCENT DISCREPANCY =          -0.01






         TIME SUMMARY AT END OF TIME STEP    1 IN STRESS PERIOD  127
                    SECONDS     MINUTES      HOURS       DAYS        YEARS
                    -----------------------------------------------------------
   TIME STEP LENGTH  86400.      1440.0      24.000      1.0000     2.73785E-03
 STRESS PERIOD TIME  86400.      1440.0      24.000      1.0000     2.73785E-03
         TOTAL TIME 1.53792E+07 2.56320E+05  4272.0      178.00     0.48734    
1
1
                            STRESS PERIOD NO.  128, LENGTH =   86400.00    
                            -----------------------------------------------

                              NUMBER OF TIME STEPS =     1

                               MULTIPLIER FOR DELT =     1.000

                            INITIAL TIME STEP SIZE =   86400.00    

 REUSING RECH FROM LAST STRESS PERIOD

 CHD NO.   LAYER   ROW   COL    START HEAD        END HEAD         IFACE           
 ----------------------------------------------------------------------------------
      1      4      3      1       110.0           110.0           0.000    
      2      5      3      1       110.0           110.0           0.000    
      3      4      3      2       110.0           110.0           0.000    
      4      5      3      2       110.0           110.0           0.000    
      5      4      3      3       110.0           110.0           0.000    
      6      5      3      3       110.0           110.0           0.000    
      7      4      3      4       110.0           110.0           0.000    
      8      5      3      4       110.0           110.0           0.000    
      9      4      3      5       110.0           110.0           0.000    
     10      5      3      5       110.0           110.0           0.000    
     11      4      3      6       110.0           110.0           0.000    
     12      5      3      6       110.0           110.0           0.000    
     13      4      3      7       110.0           110.0           0.000    
     14      5      3      7       110.0           110.0           0.000    
     15      4      3      8       110.0           110.0           0.000    
     16      5      3      8       110.0           110.0           0.000    
     17      4      2      8       110.0           110.0           0.000    
     18      5      2      8       110.0           110.0           0.000    
     19      4      2      9       110.0           110.0           0.000    
     20      5      2      9       110.0           110.0           0.000    
     21      4      2     10       110.0           110.0           0.000    
     22      5      2     10       110.0           110.0           0.000    
     23      4      2     11       110.0           110.0           0.000    
     24      5      2     11       110.0           110.0           0.000    
     25      4      2     12       110.0           110.0           0.000    
     26      5      2     12       110.0           110.0           0.000    
     27      4      2     13       110.0           110.0           0.000    
     28      5      2     13       110.0           110.0           0.000    
     29      4      2     14       110.0           110.0           0.000    
     30      5      2     14       110.0           110.0           0.000    
     31      4      2     15       110.0           110.0           0.000    
     32      5      2     15       110.0           110.0           0.000    
     33      4      2     16       110.0           110.0           0.000    
     34      5      2     16       110.0           110.0           0.000    
     35      4      2     17       110.0           110.0           0.000    
     36      5      2     17       110.0           110.0           0.000    
     37      4      2     18       110.0           110.0           0.000    
     38      5      2     18       110.0           110.0           0.000    
     39      4      2     19       110.0           110.0           0.000    
     40      5      2     19       110.0           110.0           0.000    
     41      4      2     20       110.0           110.0           0.000    
     42      5      2     20       110.0           110.0           0.000    
     43      4      2     21       110.0           110.0           0.000    
     44      5      2     21       110.0           110.0           0.000    
     45      4      2     22       110.0           110.0           0.000    
     46      5      2     22       110.0           110.0           0.000    
     47      4      2     23       110.0           110.0           0.000    
     48      5      2     23       110.0           110.0           0.000    
     49      4      2     24       110.0           110.0           0.000    
     50      5      2     24       110.0           110.0           0.000    
     51      4      2     25       110.0           110.0           0.000    
     52      5      2     25       110.0           110.0           0.000    
     53      4      2     26       110.0           110.0           0.000    
     54      5      2     26       110.0           110.0           0.000    
     55      4      1     26       110.0           110.0           0.000    
     56      5      1     26       110.0           110.0           0.000    
     57      4      1     27       110.0           110.0           0.000    
     58      5      1     27       110.0           110.0           0.000    
     59      4      1     28       110.0           110.0           0.000    
     60      5      1     28       110.0           110.0           0.000    
     61      4      1     29       110.0           110.0           0.000    
     62      5      1     29       110.0           110.0           0.000    
     63      4      1     30       110.0           110.0           0.000    
     64      5      1     30       110.0           110.0           0.000    
     65      4      1     31       110.0           110.0           0.000    
     66      5      1     31       110.0           110.0           0.000    
     67      4      1     32       110.0           110.0           0.000    
     68      5      1     32       110.0           110.0           0.000    
     69      4      1     33       110.0           110.0           0.000    
     70      5      1     33       110.0           110.0           0.000    
     71      4      1     34       110.0           110.0           0.000    
     72      5      1     34       110.0           110.0           0.000    
     73      4      1     35       110.0           110.0           0.000    
     74      5      1     35       110.0           110.0           0.000    
     75      4     36     35       109.8           109.8           0.000    
     76      5     36     35       109.8           109.8           0.000    
     77      4     35     34       109.8           109.8           0.000    
     78      5     35     34       109.8           109.8           0.000    
     79      4     36     34       109.8           109.8           0.000    
     80      5     36     34       109.8           109.8           0.000    
     81      4     36     33       109.8           109.8           0.000    
     82      5     36     33       109.8           109.8           0.000    
     83      4     36     32       109.8           109.8           0.000    
     84      5     36     32       109.8           109.8           0.000    
     85      4     37     32       109.8           109.8           0.000    
     86      5     37     32       109.8           109.8           0.000    
     87      4     37     31       109.8           109.8           0.000    
     88      5     37     31       109.8           109.8           0.000    
     89      4     38     31       109.8           109.8           0.000    
     90      5     38     31       109.8           109.8           0.000    
     91      4     38     30       109.8           109.8           0.000    
     92      5     38     30       109.8           109.8           0.000    
     93      4     39     30       109.8           109.8           0.000    
     94      5     39     30       109.8           109.8           0.000    
     95      4     39     29       109.8           109.8           0.000    
     96      5     39     29       109.8           109.8           0.000    
     97      4     40     29       109.8           109.8           0.000    
     98      5     40     29       109.8           109.8           0.000    
     99      4     40     28       109.8           109.8           0.000    
    100      5     40     28       109.8           109.8           0.000    
    101      4     40     27       109.8           109.8           0.000    
    102      5     40     27       109.8           109.8           0.000    
    103      4     41     27       109.8           109.8           0.000    
    104      5     41     27       109.8           109.8           0.000    
    105      4     41     26       109.8           109.8           0.000    
    106      5     41     26       109.8           109.8           0.000    
    107      4     41     25       109.8           109.8           0.000    
    108      5     41     25       109.8           109.8           0.000    
    109      4     41     24       109.8           109.8           0.000    
    110      5     41     24       109.8           109.8           0.000    
    111      4     41     23       109.8           109.8           0.000    
    112      5     41     23       109.8           109.8           0.000    
    113      4     41     22       109.8           109.8           0.000    
    114      5     41     22       109.8           109.8           0.000    
    115      4     42     22       109.8           109.8           0.000    
    116      5     42     22       109.8           109.8           0.000    
    117      4     42     21       109.8           109.8           0.000    
    118      5     42     21       109.8           109.8           0.000    
    119      4     42     20       109.8           109.8           0.000    
    120      5     42     20       109.8           109.8           0.000    
    121      4     42     19       109.8           109.8           0.000    
    122      5     42     19       109.8           109.8           0.000    
    123      4     43     18       109.8           109.8           0.000    
    124      5     43     18       109.8           109.8           0.000    
    125      4     42     18       109.8           109.8           0.000    
    126      5     42     18       109.8           109.8           0.000    
    127      4     42     17       109.8           109.8           0.000    
    128      5     42     17       109.8           109.8           0.000    
    129      4     42     16       109.8           109.8           0.000    
    130      5     42     16       109.8           109.8           0.000    
    131      4     42     15       109.8           109.8           0.000    
    132      5     42     15       109.8           109.8           0.000    
    133      4     43     15       109.8           109.8           0.000    
    134      5     43     15       109.8           109.8           0.000    
    135      4     43     14       109.8           109.8           0.000    
    136      5     43     14       109.8           109.8           0.000    
    137      4     43     13       109.8           109.8           0.000    
    138      5     43     13       109.8           109.8           0.000    
    139      4     43     12       109.8           109.8           0.000    
    140      5     43     12       109.8           109.8           0.000    
    141      4     43     11       109.8           109.8           0.000    
    142      5     43     11       109.8           109.8           0.000    
    143      4     43     10       109.8           109.8           0.000    
    144      5     43     10       109.8           109.8           0.000    
    145      4     44     10       109.8           109.8           0.000    
    146      5     44     10       109.8           109.8           0.000    
    147      4     44      9       109.8           109.8           0.000    
    148      5     44      9       109.8           109.8           0.000    
    149      4     44      8       109.8           109.8           0.000    
    150      5     44      8       109.8           109.8           0.000    
    151      4     44      7       109.8           109.8           0.000    
    152      5     44      7       109.8           109.8           0.000    
    153      4     44      6       109.8           109.8           0.000    
    154      5     44      6       109.8           109.8           0.000    
    155      4     44      5       109.8           109.8           0.000    
    156      5     44      5       109.8           109.8           0.000    
    157      4     44      4       109.8           109.7           0.000    
    158      5     44      4       109.8           109.7           0.000    
    159      4     44      3       109.8           109.7           0.000    
    160      5     44      3       109.8           109.7           0.000    
    161      4     45      3       109.8           109.7           0.000    
    162      5     45      3       109.8           109.7           0.000    
    163      4     45      2       109.8           109.7           0.000    
    164      5     45      2       109.8           109.7           0.000    
    165      4     45      1       109.8           109.7           0.000    
    166      5     45      1       109.8           109.7           0.000    


    166 TIME-VARIANT SPECIFIED-HEAD CELLS

 SOLVING FOR HEAD 


     3 CALLS TO PCG ROUTINE FOR TIME STEP   1 IN STRESS PERIOD  128
    61 TOTAL ITERATIONS

 MAXIMUM HEAD CHANGE FOR EACH ITERATION (1 INDICATES THE FIRST INNER ITERATION):

    HEAD CHANGE    HEAD CHANGE    HEAD CHANGE    HEAD CHANGE    HEAD CHANGE 
   LAYER,ROW,COL  LAYER,ROW,COL  LAYER,ROW,COL  LAYER,ROW,COL  LAYER,ROW,COL
 ---------------------------------------------------------------------------
  1 -0.1541      0  0.8591E-01  0 -0.4732E-01  0  0.4226E-01  0 -0.5293E-01
   (  5, 43,  5)  (  5, 35,  1)  (  5, 30,  2)  (  5, 41,  2)  (  5, 37,  1)
  0 -0.3177E-01  0 -0.3484E-01  0  0.3798E-01  0  0.2224E-01  0  0.1679E-01
   (  5, 39,  1)  (  5, 40,  1)  (  5, 37,  1)  (  5, 37,  6)  (  5, 40,  1)
  0  0.1518E-01  0 -0.1538E-01  0  0.5236E-02  0  0.8240E-02  0 -0.7072E-02
   (  5, 35,  9)  (  5, 33,  9)  (  5, 31,  4)  (  5, 31,  9)  (  5, 36,  8)
  0 -0.4161E-02  0  0.4098E-02  0 -0.3164E-02  0  0.2491E-02  0  0.2469E-02
   (  5, 35,  2)  (  5, 34,  9)  (  5, 31,  9)  (  5, 30, 10)  (  5, 38,  4)
  0 -0.1981E-02  0  0.1375E-02  0 -0.9377E-03  0 -0.1413E-02  0  0.1048E-02
   (  5, 37,  1)  (  5, 32,  4)  (  5, 29,  2)  (  5, 13,  1)  (  5, 13,  1)
  0  0.7439E-03  0 -0.4741E-03  0 -0.3318E-03  0  0.3881E-03  0 -0.2953E-03
   (  5, 37,  1)  (  5, 40,  2)  (  5, 35,  1)  (  5, 38,  1)  (  5, 41,  2)
  1  0.1263E-03  0 -0.1739E-03  0 -0.1779E-03  0 -0.7723E-04  0 -0.1189E-03
   (  5, 33,  3)  (  5, 31,  5)  (  5, 41,  2)  (  5, 24,  3)  (  5, 35,  3)
  0  0.1013E-03  0 -0.1056E-03  0  0.8610E-04  0 -0.7471E-04  0  0.6069E-04
   (  5, 34,  1)  (  5, 37,  1)  (  5, 38,  2)  (  5, 39,  1)  (  5, 37,  1)
  0 -0.3658E-04  0  0.4925E-04  0  0.3670E-04  0 -0.2504E-04  0 -0.1466E-04
   (  5, 31,  3)  (  5, 35,  3)  (  5, 41,  2)  (  5, 40,  2)  (  5, 12,  1)
  0  0.1700E-04  0  0.1075E-04  0 -0.1110E-04  0  0.1132E-04  0 -0.3780E-05
   (  5, 29,  9)  (  5, 33,  1)  (  5, 32,  9)  (  5, 34,  8)  (  5, 29,  3)
  0 -0.6649E-05  0  0.5526E-05  0  0.5243E-05  0 -0.4162E-05  0 -0.2195E-05
   (  5, 36,  9)  (  5, 36,  1)  (  5, 37,  8)  (  5, 36,  6)  (  5, 28, 12)
  0  0.2647E-05  0 -0.1797E-05  0  0.1837E-05  0 -0.1126E-05  0  0.9516E-06
   (  5, 40,  1)  (  5, 41,  4)  (  5, 37,  1)  (  5, 34,  3)  (  5, 31,  3)
  1 -0.7931E-06
   (  5, 28,  3)

 MAXIMUM RESIDUAL FOR EACH ITERATION (1 INDICATES THE FIRST INNER ITERATION):

    RESIDUAL       RESIDUAL       RESIDUAL       RESIDUAL       RESIDUAL    
   LAYER,ROW,COL  LAYER,ROW,COL  LAYER,ROW,COL  LAYER,ROW,COL  LAYER,ROW,COL
 ---------------------------------------------------------------------------
  1  0.5635E-03  0  0.4065E-03  0  0.3695E-03  0  0.3312E-03  0  0.2755E-03
   (  4, 44,  2)  (  4, 44,  2)  (  4, 35, 35)  (  4, 35, 35)  (  4, 35, 35)
  0  0.2297E-03  0  0.1913E-03  0 -0.1608E-03  0 -0.1338E-03  0 -0.1126E-03
   (  3, 40, 27)  (  3, 40, 27)  (  4, 43,  5)  (  4, 43,  5)  (  4, 43,  4)
  0 -0.8942E-04  0 -0.7031E-04  0 -0.6683E-04  0 -0.5271E-04  0 -0.4503E-04
   (  4, 43,  4)  (  4, 43,  4)  (  4, 43,  4)  (  4, 44,  2)  (  4, 44,  2)
  0 -0.4226E-04  0 -0.3533E-04  0 -0.2733E-04  0 -0.2174E-04  0 -0.1759E-04
   (  4, 44,  2)  (  4, 44,  2)  (  4, 44,  2)  (  4, 44,  2)  (  4, 44,  2)
  0 -0.1487E-04  0 -0.1134E-04  0 -0.1031E-04  0 -0.8071E-05  0 -0.6471E-05
   (  4, 44,  2)  (  4, 44,  2)  (  4, 44,  2)  (  4, 34, 35)  (  4, 34, 35)
  0 -0.5394E-05  0 -0.4697E-05  0 -0.4401E-05  0 -0.3301E-05  0 -0.2280E-05
   (  4, 34, 35)  (  4, 34, 35)  (  4, 34, 35)  (  4, 34, 35)  (  4, 34, 35)
  1 -0.2243E-05  0 -0.2123E-05  0 -0.1805E-05  0 -0.1682E-05  0 -0.1426E-05
   (  4, 34, 35)  (  4, 34, 35)  (  4, 34, 35)  (  4, 34, 35)  (  4, 34, 35)
  0 -0.1214E-05  0 -0.1025E-05  0 -0.7722E-06  0 -0.5649E-06  0 -0.4296E-06
   (  4, 34, 35)  (  4, 34, 35)  (  4, 34, 35)  (  4, 34, 35)  (  4, 34, 35)
  0 -0.3879E-06  0 -0.2809E-06  0  0.1999E-06  0  0.1578E-06  0  0.1136E-06
   (  4, 34, 35)  (  4, 34, 35)  (  4, 35, 35)  (  4, 35, 35)  (  4, 35, 35)
  0  0.9023E-07  0  0.8051E-07  0  0.6496E-07  0  0.4892E-07  0  0.4676E-07
   (  4, 35, 35)  (  4, 35, 35)  (  4, 35, 35)  (  4, 35, 35)  (  4, 35, 35)
  0  0.3662E-07  0  0.3203E-07  0  0.2499E-07  0  0.1776E-07  0  0.1352E-07
   (  4, 35, 35)  (  4, 35, 35)  (  4, 35, 35)  (  4, 35, 35)  (  3, 41, 22)
  0  0.1054E-07  0  0.8548E-08  0  0.7507E-08  0  0.6991E-08  0  0.5900E-08
   (  3, 41, 22)  (  3, 36, 35)  (  3, 36, 35)  (  3, 36, 35)  (  3, 36, 35)
  1  0.5873E-08
   (  3, 36, 35)



 OUTPUT CONTROL FOR STRESS PERIOD  128   TIME STEP    1
    SAVE HEAD FOR ALL LAYERS
    SAVE DRAWDOWN FOR ALL LAYERS
    SAVE BUDGET
    PRINT BUDGET
 UBDSV1 SAVING "         STORAGE" ON UNIT   9 AT TIME STEP  1, STRESS PERIOD 128
 UBDSV2 SAVING "   CONSTANT HEAD" ON UNIT   9 AT TIME STEP  1, STRESS PERIOD 128
 UBDSV1 SAVING "FLOW RIGHT FACE " ON UNIT   9 AT TIME STEP  1, STRESS PERIOD 128
 UBDSV1 SAVING "FLOW FRONT FACE " ON UNIT   9 AT TIME STEP  1, STRESS PERIOD 128
 UBDSV1 SAVING "FLOW LOWER FACE " ON UNIT   9 AT TIME STEP  1, STRESS PERIOD 128
 UBDSV3 SAVING "        RECHARGE" ON UNIT   9 AT TIME STEP  1, STRESS PERIOD 128

 HEAD WILL BE SAVED ON UNIT   37 AT END OF TIME STEP    1, STRESS PERIOD  128

 DRAWDOWN WILL BE SAVED ON UNIT   38 AT END OF TIME STEP    1, STRESS PERIOD  128
1
  VOLUMETRIC BUDGET FOR ENTIRE MODEL AT END OF TIME STEP    1, STRESS PERIOD 128
  ------------------------------------------------------------------------------

     CUMULATIVE VOLUMES      L**3       RATES FOR THIS TIME STEP      L**3/T
     ------------------                 ------------------------

           IN:                                      IN:
           ---                                      ---
             STORAGE =       19320.0078               STORAGE =       1.2797E-03
       CONSTANT HEAD =       32679.2461         CONSTANT HEAD =       1.3044E-03
            RECHARGE =        1579.4860              RECHARGE =       1.0213E-04

            TOTAL IN =       53578.7383              TOTAL IN =       2.6862E-03

          OUT:                                     OUT:
          ----                                     ----
             STORAGE =       15903.8359               STORAGE =           0.0000
       CONSTANT HEAD =       37676.5625         CONSTANT HEAD =       2.6865E-03
            RECHARGE =           0.0000              RECHARGE =           0.0000

           TOTAL OUT =       53580.3984             TOTAL OUT =       2.6865E-03

            IN - OUT =          -1.6602              IN - OUT =      -2.4145E-07

 PERCENT DISCREPANCY =          -0.00     PERCENT DISCREPANCY =          -0.01






         TIME SUMMARY AT END OF TIME STEP    1 IN STRESS PERIOD  128
                    SECONDS     MINUTES      HOURS       DAYS        YEARS
                    -----------------------------------------------------------
   TIME STEP LENGTH  86400.      1440.0      24.000      1.0000     2.73785E-03
 STRESS PERIOD TIME  86400.      1440.0      24.000      1.0000     2.73785E-03
         TOTAL TIME 1.54656E+07 2.57760E+05  4296.0      179.00     0.49008    
1
1
                            STRESS PERIOD NO.  129, LENGTH =   259200.0    
                            -----------------------------------------------

                              NUMBER OF TIME STEPS =     3

                               MULTIPLIER FOR DELT =     1.000

                            INITIAL TIME STEP SIZE =   86400.00    

 REUSING RECH FROM LAST STRESS PERIOD

 CHD NO.   LAYER   ROW   COL    START HEAD        END HEAD         IFACE           
 ----------------------------------------------------------------------------------
      1      4      3      1       110.0           109.8           0.000    
      2      5      3      1       110.0           109.8           0.000    
      3      4      3      2       110.0           109.8           0.000    
      4      5      3      2       110.0           109.8           0.000    
      5      4      3      3       110.0           109.8           0.000    
      6      5      3      3       110.0           109.8           0.000    
      7      4      3      4       110.0           109.8           0.000    
      8      5      3      4       110.0           109.8           0.000    
      9      4      3      5       110.0           109.8           0.000    
     10      5      3      5       110.0           109.8           0.000    
     11      4      3      6       110.0           109.8           0.000    
     12      5      3      6       110.0           109.8           0.000    
     13      4      3      7       110.0           109.8           0.000    
     14      5      3      7       110.0           109.8           0.000    
     15      4      3      8       110.0           109.8           0.000    
     16      5      3      8       110.0           109.8           0.000    
     17      4      2      8       110.0           109.8           0.000    
     18      5      2      8       110.0           109.8           0.000    
     19      4      2      9       110.0           109.8           0.000    
     20      5      2      9       110.0           109.8           0.000    
     21      4      2     10       110.0           109.8           0.000    
     22      5      2     10       110.0           109.8           0.000    
     23      4      2     11       110.0           109.8           0.000    
     24      5      2     11       110.0           109.8           0.000    
     25      4      2     12       110.0           109.8           0.000    
     26      5      2     12       110.0           109.8           0.000    
     27      4      2     13       110.0           109.8           0.000    
     28      5      2     13       110.0           109.8           0.000    
     29      4      2     14       110.0           109.8           0.000    
     30      5      2     14       110.0           109.8           0.000    
     31      4      2     15       110.0           109.8           0.000    
     32      5      2     15       110.0           109.8           0.000    
     33      4      2     16       110.0           109.8           0.000    
     34      5      2     16       110.0           109.8           0.000    
     35      4      2     17       110.0           109.8           0.000    
     36      5      2     17       110.0           109.8           0.000    
     37      4      2     18       110.0           109.8           0.000    
     38      5      2     18       110.0           109.8           0.000    
     39      4      2     19       110.0           109.8           0.000    
     40      5      2     19       110.0           109.8           0.000    
     41      4      2     20       110.0           109.8           0.000    
     42      5      2     20       110.0           109.8           0.000    
     43      4      2     21       110.0           109.8           0.000    
     44      5      2     21       110.0           109.8           0.000    
     45      4      2     22       110.0           109.8           0.000    
     46      5      2     22       110.0           109.8           0.000    
     47      4      2     23       110.0           109.8           0.000    
     48      5      2     23       110.0           109.8           0.000    
     49      4      2     24       110.0           109.8           0.000    
     50      5      2     24       110.0           109.8           0.000    
     51      4      2     25       110.0           109.8           0.000    
     52      5      2     25       110.0           109.8           0.000    
     53      4      2     26       110.0           109.8           0.000    
     54      5      2     26       110.0           109.8           0.000    
     55      4      1     26       110.0           109.8           0.000    
     56      5      1     26       110.0           109.8           0.000    
     57      4      1     27       110.0           109.8           0.000    
     58      5      1     27       110.0           109.8           0.000    
     59      4      1     28       110.0           109.8           0.000    
     60      5      1     28       110.0           109.8           0.000    
     61      4      1     29       110.0           109.8           0.000    
     62      5      1     29       110.0           109.8           0.000    
     63      4      1     30       110.0           109.8           0.000    
     64      5      1     30       110.0           109.8           0.000    
     65      4      1     31       110.0           109.8           0.000    
     66      5      1     31       110.0           109.8           0.000    
     67      4      1     32       110.0           109.8           0.000    
     68      5      1     32       110.0           109.8           0.000    
     69      4      1     33       110.0           109.8           0.000    
     70      5      1     33       110.0           109.8           0.000    
     71      4      1     34       110.0           109.8           0.000    
     72      5      1     34       110.0           109.8           0.000    
     73      4      1     35       110.0           109.8           0.000    
     74      5      1     35       110.0           109.8           0.000    
     75      4     36     35       109.8           109.6           0.000    
     76      5     36     35       109.8           109.6           0.000    
     77      4     35     34       109.8           109.6           0.000    
     78      5     35     34       109.8           109.6           0.000    
     79      4     36     34       109.8           109.6           0.000    
     80      5     36     34       109.8           109.6           0.000    
     81      4     36     33       109.8           109.6           0.000    
     82      5     36     33       109.8           109.6           0.000    
     83      4     36     32       109.8           109.6           0.000    
     84      5     36     32       109.8           109.6           0.000    
     85      4     37     32       109.8           109.6           0.000    
     86      5     37     32       109.8           109.6           0.000    
     87      4     37     31       109.8           109.6           0.000    
     88      5     37     31       109.8           109.6           0.000    
     89      4     38     31       109.8           109.6           0.000    
     90      5     38     31       109.8           109.6           0.000    
     91      4     38     30       109.8           109.6           0.000    
     92      5     38     30       109.8           109.6           0.000    
     93      4     39     30       109.8           109.6           0.000    
     94      5     39     30       109.8           109.6           0.000    
     95      4     39     29       109.8           109.6           0.000    
     96      5     39     29       109.8           109.6           0.000    
     97      4     40     29       109.8           109.6           0.000    
     98      5     40     29       109.8           109.6           0.000    
     99      4     40     28       109.8           109.6           0.000    
    100      5     40     28       109.8           109.6           0.000    
    101      4     40     27       109.8           109.6           0.000    
    102      5     40     27       109.8           109.6           0.000    
    103      4     41     27       109.8           109.6           0.000    
    104      5     41     27       109.8           109.6           0.000    
    105      4     41     26       109.8           109.6           0.000    
    106      5     41     26       109.8           109.6           0.000    
    107      4     41     25       109.8           109.6           0.000    
    108      5     41     25       109.8           109.6           0.000    
    109      4     41     24       109.8           109.6           0.000    
    110      5     41     24       109.8           109.6           0.000    
    111      4     41     23       109.8           109.6           0.000    
    112      5     41     23       109.8           109.6           0.000    
    113      4     41     22       109.8           109.6           0.000    
    114      5     41     22       109.8           109.6           0.000    
    115      4     42     22       109.8           109.6           0.000    
    116      5     42     22       109.8           109.6           0.000    
    117      4     42     21       109.8           109.6           0.000    
    118      5     42     21       109.8           109.6           0.000    
    119      4     42     20       109.8           109.6           0.000    
    120      5     42     20       109.8           109.6           0.000    
    121      4     42     19       109.8           109.6           0.000    
    122      5     42     19       109.8           109.6           0.000    
    123      4     43     18       109.8           109.6           0.000    
    124      5     43     18       109.8           109.6           0.000    
    125      4     42     18       109.8           109.6           0.000    
    126      5     42     18       109.8           109.6           0.000    
    127      4     42     17       109.8           109.6           0.000    
    128      5     42     17       109.8           109.6           0.000    
    129      4     42     16       109.8           109.6           0.000    
    130      5     42     16       109.8           109.6           0.000    
    131      4     42     15       109.8           109.6           0.000    
    132      5     42     15       109.8           109.6           0.000    
    133      4     43     15       109.8           109.6           0.000    
    134      5     43     15       109.8           109.6           0.000    
    135      4     43     14       109.8           109.6           0.000    
    136      5     43     14       109.8           109.6           0.000    
    137      4     43     13       109.8           109.6           0.000    
    138      5     43     13       109.8           109.6           0.000    
    139      4     43     12       109.8           109.6           0.000    
    140      5     43     12       109.8           109.6           0.000    
    141      4     43     11       109.8           109.6           0.000    
    142      5     43     11       109.8           109.6           0.000    
    143      4     43     10       109.8           109.6           0.000    
    144      5     43     10       109.8           109.6           0.000    
    145      4     44     10       109.8           109.6           0.000    
    146      5     44     10       109.8           109.6           0.000    
    147      4     44      9       109.8           109.6           0.000    
    148      5     44      9       109.8           109.6           0.000    
    149      4     44      8       109.8           109.6           0.000    
    150      5     44      8       109.8           109.6           0.000    
    151      4     44      7       109.8           109.6           0.000    
    152      5     44      7       109.8           109.6           0.000    
    153      4     44      6       109.8           109.6           0.000    
    154      5     44      6       109.8           109.6           0.000    
    155      4     44      5       109.8           109.6           0.000    
    156      5     44      5       109.8           109.6           0.000    
    157      4     44      4       109.7           109.6           0.000    
    158      5     44      4       109.7           109.6           0.000    
    159      4     44      3       109.7           109.6           0.000    
    160      5     44      3       109.7           109.6           0.000    
    161      4     45      3       109.7           109.6           0.000    
    162      5     45      3       109.7           109.6           0.000    
    163      4     45      2       109.7           109.6           0.000    
    164      5     45      2       109.7           109.6           0.000    
    165      4     45      1       109.7           109.6           0.000    
    166      5     45      1       109.7           109.6           0.000    


    166 TIME-VARIANT SPECIFIED-HEAD CELLS

 SOLVING FOR HEAD 


     3 CALLS TO PCG ROUTINE FOR TIME STEP   1 IN STRESS PERIOD  129
    61 TOTAL ITERATIONS

 MAXIMUM HEAD CHANGE FOR EACH ITERATION (1 INDICATES THE FIRST INNER ITERATION):

    HEAD CHANGE    HEAD CHANGE    HEAD CHANGE    HEAD CHANGE    HEAD CHANGE 
   LAYER,ROW,COL  LAYER,ROW,COL  LAYER,ROW,COL  LAYER,ROW,COL  LAYER,ROW,COL
 ---------------------------------------------------------------------------
  1 -0.2241      0  0.1219      0 -0.6819E-01  0  0.6138E-01  0 -0.7486E-01
   (  5, 43,  5)  (  5, 35,  1)  (  5, 30,  2)  (  5, 41,  2)  (  5, 37,  1)
  0 -0.4659E-01  0 -0.5079E-01  0  0.5512E-01  0  0.3188E-01  0  0.2471E-01
   (  5, 39,  1)  (  5, 40,  1)  (  5, 37,  1)  (  5, 37,  6)  (  5, 40,  1)
  0  0.2198E-01  0  0.1148E-01  0 -0.1743E-01  0  0.1390E-01  0 -0.1002E-01
   (  5, 35,  9)  (  5, 28,  2)  (  5, 33,  9)  (  5, 30,  9)  (  5, 36,  9)
  0 -0.5972E-02  0  0.5425E-02  0  0.4677E-02  0  0.3650E-02  0  0.3594E-02
   (  5, 35,  2)  (  5, 38,  1)  (  5, 15,  1)  (  5, 30, 10)  (  5, 36,  7)
  0 -0.2032E-02  0  0.1775E-02  0 -0.2130E-02  0 -0.2025E-02  0  0.1543E-02
   (  5, 29,  2)  (  5, 34,  1)  (  5, 36,  4)  (  5, 13,  1)  (  5, 13,  1)
  0 -0.9837E-03  0  0.7494E-03  0 -0.4511E-03  0  0.4614E-03  0  0.3852E-03
   (  5, 40,  2)  (  5, 37,  1)  (  5, 34,  1)  (  5, 35,  3)  (  5, 31,  4)
  1 -0.3083E-03  0 -0.2307E-03  0  0.2131E-03  0 -0.3215E-03  0  0.2548E-03
   (  5, 30,  2)  (  5, 34,  3)  (  5, 33,  1)  (  5, 37,  1)  (  5, 39,  2)
  0 -0.1880E-03  0 -0.1457E-03  0  0.1552E-03  0 -0.1173E-03  0  0.9867E-04
   (  5, 13,  1)  (  5, 37,  2)  (  5, 13,  1)  (  5, 39,  1)  (  5, 41,  2)
  0  0.3980E-04  0 -0.8620E-04  0  0.6546E-04  0 -0.4334E-04  0 -0.2659E-04
   (  5, 28,  2)  (  5, 39,  1)  (  5, 41,  2)  (  5, 15,  1)  (  5, 36,  1)
  0 -0.3627E-04  0  0.2143E-04  0 -0.2208E-04  0 -0.1498E-04  0  0.7756E-05
   (  5, 31,  9)  (  5, 39,  1)  (  5, 28, 10)  (  5, 32,  1)  (  5, 33,  4)
  0 -0.1592E-04  0  0.1039E-04  0 -0.9513E-05  0  0.8225E-05  0 -0.5170E-05
   (  5, 32,  8)  (  5, 35,  1)  (  5, 38,  1)  (  5, 40,  1)  (  5, 42,  6)
  0 -0.4338E-05  0  0.2924E-05  0 -0.2708E-05  0  0.2265E-05  0 -0.1082E-05
   (  5, 42,  2)  (  5, 39,  3)  (  5, 34,  1)  (  5, 35,  5)  (  5, 28,  3)
  1  0.9003E-06
   (  5, 29,  5)

 MAXIMUM RESIDUAL FOR EACH ITERATION (1 INDICATES THE FIRST INNER ITERATION):

    RESIDUAL       RESIDUAL       RESIDUAL       RESIDUAL       RESIDUAL    
   LAYER,ROW,COL  LAYER,ROW,COL  LAYER,ROW,COL  LAYER,ROW,COL  LAYER,ROW,COL
 ---------------------------------------------------------------------------
  1  0.8511E-03  0  0.6201E-03  0  0.5691E-03  0  0.5115E-03  0  0.4281E-03
   (  4, 44,  2)  (  4, 44,  2)  (  4, 35, 35)  (  4, 35, 35)  (  4, 35, 35)
  0  0.3554E-03  0  0.2936E-03  0  0.2291E-03  0 -0.1910E-03  0 -0.1618E-03
   (  4, 35, 35)  (  3, 40, 27)  (  3, 40, 27)  (  4, 43,  5)  (  4, 43,  4)
  0 -0.1301E-03  0 -0.1180E-03  0 -0.1002E-03  0 -0.7862E-04  0 -0.6351E-04
   (  4, 43,  4)  (  4, 43,  4)  (  4, 43,  4)  (  4, 43,  4)  (  4, 44,  2)
  0 -0.5972E-04  0 -0.5049E-04  0 -0.3949E-04  0 -0.3165E-04  0 -0.2411E-04
   (  4, 44,  2)  (  4, 44,  2)  (  4, 44,  2)  (  4, 44,  2)  (  4, 44,  2)
  0 -0.2205E-04  0 -0.1977E-04  0 -0.1553E-04  0 -0.1227E-04  0 -0.9719E-05
   (  4, 44,  2)  (  4, 44,  2)  (  4, 34, 35)  (  4, 34, 35)  (  4, 34, 35)
  0 -0.7617E-05  0 -0.6927E-05  0 -0.6253E-05  0 -0.4917E-05  0 -0.4202E-05
   (  4, 34, 35)  (  4, 34, 35)  (  4, 34, 35)  (  4, 34, 35)  (  4, 34, 35)
  1 -0.4184E-05  0 -0.3731E-05  0 -0.3515E-05  0 -0.3205E-05  0 -0.2483E-05
   (  4, 34, 35)  (  4, 34, 35)  (  4, 34, 35)  (  4, 34, 35)  (  4, 34, 35)
  0 -0.1971E-05  0 -0.1651E-05  0 -0.1196E-05  0 -0.9248E-06  0 -0.6641E-06
   (  4, 34, 35)  (  4, 34, 35)  (  4, 34, 35)  (  4, 34, 35)  (  4, 34, 35)
  0 -0.6254E-06  0  0.5003E-06  0  0.3944E-06  0  0.3050E-06  0  0.2769E-06
   (  4, 34, 35)  (  4, 35, 35)  (  4, 35, 35)  (  4, 35, 35)  (  4, 35, 35)
  0  0.2263E-06  0  0.1787E-06  0  0.1326E-06  0  0.1012E-06  0  0.9454E-07
   (  4, 35, 35)  (  4, 35, 35)  (  4, 35, 35)  (  4, 35, 35)  (  4, 35, 35)
  0  0.7184E-07  0  0.5698E-07  0  0.4830E-07  0  0.3404E-07  0  0.2412E-07
   (  4, 35, 35)  (  4, 35, 35)  (  4, 35, 35)  (  4, 35, 35)  (  4, 35, 35)
  0  0.1780E-07  0  0.1415E-07  0  0.1251E-07  0  0.1125E-07  0  0.1086E-07
   (  4, 35, 35)  (  3, 36, 35)  (  3, 36, 35)  (  3, 36, 35)  (  3, 36, 35)
  1  0.1070E-07
   (  3, 36, 35)



 OUTPUT CONTROL FOR STRESS PERIOD  129   TIME STEP    1
    SAVE HEAD FOR ALL LAYERS
    SAVE DRAWDOWN FOR ALL LAYERS
    SAVE BUDGET
    PRINT BUDGET
 UBDSV1 SAVING "         STORAGE" ON UNIT   9 AT TIME STEP  1, STRESS PERIOD 129
 UBDSV2 SAVING "   CONSTANT HEAD" ON UNIT   9 AT TIME STEP  1, STRESS PERIOD 129
 UBDSV1 SAVING "FLOW RIGHT FACE " ON UNIT   9 AT TIME STEP  1, STRESS PERIOD 129
 UBDSV1 SAVING "FLOW FRONT FACE " ON UNIT   9 AT TIME STEP  1, STRESS PERIOD 129
 UBDSV1 SAVING "FLOW LOWER FACE " ON UNIT   9 AT TIME STEP  1, STRESS PERIOD 129
 UBDSV3 SAVING "        RECHARGE" ON UNIT   9 AT TIME STEP  1, STRESS PERIOD 129

 HEAD WILL BE SAVED ON UNIT   37 AT END OF TIME STEP    1, STRESS PERIOD  129

 DRAWDOWN WILL BE SAVED ON UNIT   38 AT END OF TIME STEP    1, STRESS PERIOD  129
1
  VOLUMETRIC BUDGET FOR ENTIRE MODEL AT END OF TIME STEP    1, STRESS PERIOD 129
  ------------------------------------------------------------------------------

     CUMULATIVE VOLUMES      L**3       RATES FOR THIS TIME STEP      L**3/T
     ------------------                 ------------------------

           IN:                                      IN:
           ---                                      ---
             STORAGE =       19498.4473               STORAGE =       2.0653E-03
       CONSTANT HEAD =       32780.8203         CONSTANT HEAD =       1.1756E-03
            RECHARGE =        1588.3099              RECHARGE =       1.0213E-04

            TOTAL IN =       53867.5742              TOTAL IN =       3.3430E-03

          OUT:                                     OUT:
          ----                                     ----
             STORAGE =       15903.8359               STORAGE =           0.0000
       CONSTANT HEAD =       37965.4375         CONSTANT HEAD =       3.3435E-03
            RECHARGE =           0.0000              RECHARGE =           0.0000

           TOTAL OUT =       53869.2734             TOTAL OUT =       3.3435E-03

            IN - OUT =          -1.6992              IN - OUT =      -4.2026E-07

 PERCENT DISCREPANCY =          -0.00     PERCENT DISCREPANCY =          -0.01






         TIME SUMMARY AT END OF TIME STEP    1 IN STRESS PERIOD  129
                    SECONDS     MINUTES      HOURS       DAYS        YEARS
                    -----------------------------------------------------------
   TIME STEP LENGTH  86400.      1440.0      24.000      1.0000     2.73785E-03
 STRESS PERIOD TIME  86400.      1440.0      24.000      1.0000     2.73785E-03
         TOTAL TIME 1.55520E+07 2.59200E+05  4320.0      180.00     0.49281    
1

 SOLVING FOR HEAD 
     3 CALLS TO PCG ROUTINE FOR TIME STEP   2 IN STRESS PERIOD  129
    61 TOTAL ITERATIONS

 MAXIMUM HEAD CHANGE FOR EACH ITERATION (1 INDICATES THE FIRST INNER ITERATION):

    HEAD CHANGE    HEAD CHANGE    HEAD CHANGE    HEAD CHANGE    HEAD CHANGE 
   LAYER,ROW,COL  LAYER,ROW,COL  LAYER,ROW,COL  LAYER,ROW,COL  LAYER,ROW,COL
 ---------------------------------------------------------------------------
  1 -0.2271      0  0.1211      0  0.6864E-01  0  0.6185E-01  0 -0.7298E-01
   (  5, 43,  5)  (  5, 35,  1)  (  5, 40,  2)  (  5, 41,  2)  (  5, 37,  1)
  0 -0.4867E-01  0 -0.5096E-01  0  0.5469E-01  0  0.3192E-01  0  0.2467E-01
   (  5, 39,  1)  (  5, 40,  1)  (  5, 37,  1)  (  5, 37,  6)  (  5, 40,  1)
  0  0.2375E-01  0 -0.1918E-01  0  0.1063E-01  0  0.1352E-01  0 -0.1051E-01
   (  5, 35,  9)  (  5, 32,  9)  (  5, 29,  3)  (  5, 30,  9)  (  5, 36,  8)
  0  0.6136E-02  0 -0.6147E-02  0  0.4676E-02  0  0.3444E-02  0  0.3375E-02
   (  5, 37,  1)  (  5, 34,  1)  (  5, 36,  4)  (  5, 31, 11)  (  5, 38,  4)
  0 -0.2559E-02  0  0.2093E-02  0 -0.1335E-02  0 -0.1965E-02  0  0.1554E-02
   (  5, 37,  1)  (  5, 35,  1)  (  5, 29,  2)  (  5, 13,  1)  (  5, 13,  1)
  0  0.1111E-02  0 -0.7103E-03  0 -0.5618E-03  0  0.3918E-03  0 -0.4497E-03
   (  5, 37,  1)  (  5, 40,  2)  (  5, 35,  1)  (  5, 35,  3)  (  5, 41,  2)
  1  0.3186E-03  0 -0.2050E-03  0  0.2290E-03  0 -0.1898E-03  0 -0.1783E-03
   (  5, 40,  1)  (  5, 33,  2)  (  5, 32,  4)  (  5, 27,  4)  (  5, 35,  3)
  0  0.1711E-03  0 -0.1789E-03  0 -0.1653E-03  0 -0.1196E-03  0  0.1048E-03
   (  5, 34,  1)  (  5, 37,  1)  (  5, 33,  4)  (  5, 39,  1)  (  5, 38,  1)
  0 -0.8497E-04  0  0.3680E-04  0 -0.4552E-04  0 -0.3488E-04  0  0.2197E-04
   (  5, 40,  2)  (  5, 31,  3)  (  5, 37,  4)  (  5, 40,  2)  (  5, 32,  4)
  0 -0.1703E-04  0  0.2207E-04  0 -0.2068E-04  0  0.1726E-04  0 -0.1319E-04
   (  5, 35,  3)  (  5, 33,  1)  (  5, 32,  9)  (  5, 34,  8)  (  5, 37,  9)
  0  0.8501E-05  0 -0.7863E-05  0  0.9480E-05  0 -0.6433E-05  0  0.3760E-05
   (  5, 36,  1)  (  5, 30,  2)  (  5, 37,  8)  (  5, 36,  6)  (  5, 32,  8)
  0  0.3991E-05  0 -0.2887E-05  0 -0.1730E-05  0  0.2069E-05  0 -0.1616E-05
   (  5, 40,  1)  (  5, 41,  5)  (  5, 34,  3)  (  5, 37,  1)  (  5, 38,  2)
  1 -0.6404E-06
   (  5, 31,  3)

 MAXIMUM RESIDUAL FOR EACH ITERATION (1 INDICATES THE FIRST INNER ITERATION):

    RESIDUAL       RESIDUAL       RESIDUAL       RESIDUAL       RESIDUAL    
   LAYER,ROW,COL  LAYER,ROW,COL  LAYER,ROW,COL  LAYER,ROW,COL  LAYER,ROW,COL
 ---------------------------------------------------------------------------
  1  0.8393E-03  0  0.6256E-03  0  0.5765E-03  0  0.5188E-03  0  0.4357E-03
   (  4, 44,  2)  (  4, 35, 35)  (  4, 35, 35)  (  4, 35, 35)  (  4, 35, 35)
  0  0.3598E-03  0  0.2935E-03  0  0.2286E-03  0 -0.1903E-03  0 -0.1613E-03
   (  4, 35, 35)  (  3, 40, 27)  (  3, 40, 27)  (  4, 43,  5)  (  4, 43,  4)
  0 -0.1300E-03  0 -0.1111E-03  0 -0.1010E-03  0 -0.7968E-04  0 -0.6309E-04
   (  4, 43,  4)  (  4, 43,  4)  (  4, 43,  4)  (  4, 43,  4)  (  4, 44,  2)
  0 -0.5660E-04  0 -0.5044E-04  0 -0.3970E-04  0 -0.3181E-04  0 -0.2413E-04
   (  4, 44,  2)  (  4, 44,  2)  (  4, 44,  2)  (  4, 44,  2)  (  4, 44,  2)
  0 -0.2062E-04  0 -0.1666E-04  0 -0.1550E-04  0 -0.1225E-04  0 -0.9634E-05
   (  4, 44,  2)  (  4, 44,  2)  (  4, 34, 35)  (  4, 34, 35)  (  4, 34, 35)
  0 -0.7695E-05  0 -0.6786E-05  0 -0.5316E-05  0 -0.4807E-05  0 -0.3313E-05
   (  4, 34, 35)  (  4, 34, 35)  (  4, 34, 35)  (  4, 34, 35)  (  4, 34, 35)
  1 -0.3104E-05  0 -0.2994E-05  0 -0.2608E-05  0 -0.2402E-05  0 -0.2024E-05
   (  4, 34, 35)  (  4, 34, 35)  (  4, 34, 35)  (  4, 34, 35)  (  4, 34, 35)
  0 -0.1601E-05  0 -0.1358E-05  0 -0.9923E-06  0 -0.7601E-06  0 -0.5825E-06
   (  4, 34, 35)  (  4, 34, 35)  (  4, 34, 35)  (  4, 34, 35)  (  4, 34, 35)
  0  0.4452E-06  0  0.4151E-06  0  0.3554E-06  0  0.2913E-06  0  0.2169E-06
   (  4, 35, 35)  (  4, 35, 35)  (  4, 35, 35)  (  4, 35, 35)  (  4, 35, 35)
  0  0.2001E-06  0  0.1543E-06  0  0.1222E-06  0  0.8972E-07  0  0.7022E-07
   (  4, 35, 35)  (  4, 35, 35)  (  4, 35, 35)  (  4, 35, 35)  (  4, 35, 35)
  0  0.6311E-07  0  0.5706E-07  0  0.4463E-07  0  0.3150E-07  0  0.2298E-07
   (  4, 35, 35)  (  4, 35, 35)  (  4, 35, 35)  (  4, 35, 35)  (  4, 35, 35)
  0  0.1720E-07  0  0.1284E-07  0  0.1148E-07  0  0.9366E-08  0  0.7736E-08
   (  4, 35, 35)  (  4, 35, 35)  (  4, 35, 35)  (  3, 36, 35)  (  3, 36, 35)
  1  0.7665E-08
   (  3, 36, 35)



 OUTPUT CONTROL FOR STRESS PERIOD  129   TIME STEP    2
    SAVE HEAD FOR ALL LAYERS
    SAVE DRAWDOWN FOR ALL LAYERS
    SAVE BUDGET
    PRINT BUDGET
 UBDSV1 SAVING "         STORAGE" ON UNIT   9 AT TIME STEP  2, STRESS PERIOD 129
 UBDSV2 SAVING "   CONSTANT HEAD" ON UNIT   9 AT TIME STEP  2, STRESS PERIOD 129
 UBDSV1 SAVING "FLOW RIGHT FACE " ON UNIT   9 AT TIME STEP  2, STRESS PERIOD 129
 UBDSV1 SAVING "FLOW FRONT FACE " ON UNIT   9 AT TIME STEP  2, STRESS PERIOD 129
 UBDSV1 SAVING "FLOW LOWER FACE " ON UNIT   9 AT TIME STEP  2, STRESS PERIOD 129
 UBDSV3 SAVING "        RECHARGE" ON UNIT   9 AT TIME STEP  2, STRESS PERIOD 129

 HEAD WILL BE SAVED ON UNIT   37 AT END OF TIME STEP    2, STRESS PERIOD  129

 DRAWDOWN WILL BE SAVED ON UNIT   38 AT END OF TIME STEP    2, STRESS PERIOD  129
1
  VOLUMETRIC BUDGET FOR ENTIRE MODEL AT END OF TIME STEP    2, STRESS PERIOD 129
  ------------------------------------------------------------------------------

     CUMULATIVE VOLUMES      L**3       RATES FOR THIS TIME STEP      L**3/T
     ------------------                 ------------------------

           IN:                                      IN:
           ---                                      ---
             STORAGE =       19696.1035               STORAGE =       2.2877E-03
       CONSTANT HEAD =       32890.3711         CONSTANT HEAD =       1.2680E-03
            RECHARGE =        1597.1339              RECHARGE =       1.0213E-04

            TOTAL IN =       54183.6094              TOTAL IN =       3.6578E-03

          OUT:                                     OUT:
          ----                                     ----
             STORAGE =       15903.8359               STORAGE =           0.0000
       CONSTANT HEAD =       38281.4961         CONSTANT HEAD =       3.6581E-03
            RECHARGE =           0.0000              RECHARGE =           0.0000

           TOTAL OUT =       54185.3320             TOTAL OUT =       3.6581E-03

            IN - OUT =          -1.7227              IN - OUT =      -3.0315E-07

 PERCENT DISCREPANCY =          -0.00     PERCENT DISCREPANCY =          -0.01






         TIME SUMMARY AT END OF TIME STEP    2 IN STRESS PERIOD  129
                    SECONDS     MINUTES      HOURS       DAYS        YEARS
                    -----------------------------------------------------------
   TIME STEP LENGTH  86400.      1440.0      24.000      1.0000     2.73785E-03
 STRESS PERIOD TIME 1.72800E+05  2880.0      48.000      2.0000     5.47570E-03
         TOTAL TIME 1.56384E+07 2.60640E+05  4344.0      181.00     0.49555    
1

 SOLVING FOR HEAD 
     3 CALLS TO PCG ROUTINE FOR TIME STEP   3 IN STRESS PERIOD  129
    61 TOTAL ITERATIONS

 MAXIMUM HEAD CHANGE FOR EACH ITERATION (1 INDICATES THE FIRST INNER ITERATION):

    HEAD CHANGE    HEAD CHANGE    HEAD CHANGE    HEAD CHANGE    HEAD CHANGE 
   LAYER,ROW,COL  LAYER,ROW,COL  LAYER,ROW,COL  LAYER,ROW,COL  LAYER,ROW,COL
 ---------------------------------------------------------------------------
  1 -0.2282      0  0.1211      0  0.6919E-01  0  0.6195E-01  0 -0.7213E-01
   (  5, 43,  5)  (  5, 35,  1)  (  5, 40,  2)  (  5, 41,  2)  (  5, 37,  1)
  0 -0.4973E-01  0 -0.5100E-01  0  0.5435E-01  0  0.3196E-01  0  0.2453E-01
   (  5, 39,  1)  (  5, 40,  1)  (  5, 37,  1)  (  5, 37,  6)  (  5, 40,  1)
  0  0.2375E-01  0 -0.2364E-01  0  0.7718E-02  0  0.1230E-01  0 -0.9986E-02
   (  5, 35,  9)  (  5, 32,  9)  (  5, 31,  4)  (  5, 30,  9)  (  5, 36,  8)
  0 -0.6799E-02  0  0.5837E-02  0  0.4678E-02  0  0.3356E-02  0  0.3732E-02
   (  5, 34,  1)  (  5, 35,  4)  (  5, 15,  1)  (  5, 31, 11)  (  5, 38,  4)
  0 -0.2603E-02  0 -0.1915E-02  0 -0.1967E-02  0 -0.7370E-03  0  0.1492E-02
   (  5, 37,  1)  (  5, 33,  7)  (  5, 13,  1)  (  5, 30,  2)  (  5, 13,  1)
  0 -0.9844E-03  0  0.7471E-03  0 -0.5718E-03  0  0.5411E-03  0 -0.4227E-03
   (  5, 40,  2)  (  5, 37,  1)  (  5, 35,  1)  (  5, 35,  3)  (  5, 41,  2)
  1 -0.3192E-03  0  0.2198E-03  0 -0.2412E-03  0  0.1965E-03  0 -0.3463E-03
   (  5, 39,  5)  (  5, 30,  6)  (  5, 34,  3)  (  5, 32,  3)  (  5, 37,  1)
  0  0.2093E-03  0 -0.1339E-03  0 -0.1764E-03  0  0.1204E-03  0 -0.6591E-04
   (  5, 39,  2)  (  5, 27,  6)  (  5, 39,  1)  (  5, 37,  1)  (  5, 35,  1)
  0 -0.6929E-04  0  0.4263E-04  0 -0.4014E-04  0 -0.3455E-04  0 -0.2933E-04
   (  5, 40,  2)  (  5, 33,  4)  (  5, 30,  5)  (  5, 40,  2)  (  5, 34,  3)
  0  0.2174E-04  0 -0.1853E-04  0 -0.2439E-04  0  0.1921E-04  0 -0.1422E-04
   (  5, 33,  1)  (  5, 36,  1)  (  5, 32,  9)  (  5, 34,  8)  (  5, 36,  8)
  0 -0.7616E-05  0  0.7487E-05  0  0.8657E-05  0 -0.6365E-05  0 -0.3925E-05
   (  5, 39,  5)  (  5, 32,  5)  (  5, 36,  1)  (  5, 38,  1)  (  5, 27, 11)
  0  0.3995E-05  0 -0.3068E-05  0  0.1581E-05  0  0.2493E-05  0  0.9757E-06
   (  5, 40,  1)  (  5, 41,  5)  (  5, 35,  2)  (  5, 43,  6)  (  5, 32,  3)
  1 -0.6900E-06
   (  5, 29,  2)

 MAXIMUM RESIDUAL FOR EACH ITERATION (1 INDICATES THE FIRST INNER ITERATION):

    RESIDUAL       RESIDUAL       RESIDUAL       RESIDUAL       RESIDUAL    
   LAYER,ROW,COL  LAYER,ROW,COL  LAYER,ROW,COL  LAYER,ROW,COL  LAYER,ROW,COL
 ---------------------------------------------------------------------------
  1  0.8350E-03  0  0.6276E-03  0  0.5786E-03  0  0.5211E-03  0  0.4382E-03
   (  4, 44,  2)  (  4, 35, 35)  (  4, 35, 35)  (  4, 35, 35)  (  4, 35, 35)
  0  0.3611E-03  0  0.2933E-03  0  0.2284E-03  0 -0.1901E-03  0 -0.1610E-03
   (  4, 35, 35)  (  3, 40, 27)  (  3, 40, 27)  (  4, 43,  5)  (  4, 43,  4)
  0 -0.1298E-03  0 -0.1049E-03  0 -0.9996E-04  0 -0.7978E-04  0 -0.6313E-04
   (  4, 43,  4)  (  4, 43,  4)  (  4, 43,  4)  (  4, 43,  4)  (  4, 44,  2)
  0 -0.5705E-04  0 -0.5044E-04  0 -0.3972E-04  0 -0.3183E-04  0 -0.2507E-04
   (  4, 44,  2)  (  4, 44,  2)  (  4, 44,  2)  (  4, 44,  2)  (  4, 44,  2)
  0 -0.2194E-04  0 -0.1601E-04  0 -0.1253E-04  0 -0.1214E-04  0 -0.9562E-05
   (  4, 44,  2)  (  4, 44,  2)  (  4, 34, 35)  (  4, 34, 35)  (  4, 34, 35)
  0 -0.7444E-05  0 -0.6669E-05  0 -0.5814E-05  0 -0.4764E-05  0 -0.3291E-05
   (  4, 34, 35)  (  4, 34, 35)  (  4, 34, 35)  (  4, 34, 35)  (  4, 34, 35)
  1 -0.3086E-05  0 -0.2817E-05  0 -0.2510E-05  0 -0.2354E-05  0 -0.1897E-05
   (  4, 34, 35)  (  4, 34, 35)  (  4, 34, 35)  (  4, 34, 35)  (  4, 34, 35)
  0 -0.1555E-05  0 -0.1158E-05  0 -0.8929E-06  0 -0.6939E-06  0 -0.5539E-06
   (  4, 34, 35)  (  4, 34, 35)  (  4, 34, 35)  (  4, 34, 35)  (  4, 34, 35)
  0  0.4321E-06  0  0.3853E-06  0  0.3494E-06  0  0.2864E-06  0  0.2143E-06
   (  4, 35, 35)  (  4, 35, 35)  (  4, 35, 35)  (  4, 35, 35)  (  4, 35, 35)
  0  0.1857E-06  0  0.1592E-06  0  0.1238E-06  0  0.9000E-07  0  0.7216E-07
   (  4, 35, 35)  (  4, 35, 35)  (  4, 35, 35)  (  4, 35, 35)  (  4, 35, 35)
  0  0.6465E-07  0  0.5887E-07  0  0.4478E-07  0  0.3154E-07  0  0.2323E-07
   (  4, 35, 35)  (  4, 35, 35)  (  4, 35, 35)  (  4, 35, 35)  (  4, 35, 35)
  0  0.1728E-07  0  0.1301E-07  0  0.1196E-07  0  0.8125E-08  0  0.7744E-08
   (  4, 35, 35)  (  4, 35, 35)  (  4, 35, 35)  (  3, 36, 35)  (  3, 36, 35)
  1  0.7703E-08
   (  3, 36, 35)



 OUTPUT CONTROL FOR STRESS PERIOD  129   TIME STEP    3
    SAVE HEAD FOR ALL LAYERS
    SAVE DRAWDOWN FOR ALL LAYERS
    SAVE BUDGET
    PRINT BUDGET
 UBDSV1 SAVING "         STORAGE" ON UNIT   9 AT TIME STEP  3, STRESS PERIOD 129
 UBDSV2 SAVING "   CONSTANT HEAD" ON UNIT   9 AT TIME STEP  3, STRESS PERIOD 129
 UBDSV1 SAVING "FLOW RIGHT FACE " ON UNIT   9 AT TIME STEP  3, STRESS PERIOD 129
 UBDSV1 SAVING "FLOW FRONT FACE " ON UNIT   9 AT TIME STEP  3, STRESS PERIOD 129
 UBDSV1 SAVING "FLOW LOWER FACE " ON UNIT   9 AT TIME STEP  3, STRESS PERIOD 129
 UBDSV3 SAVING "        RECHARGE" ON UNIT   9 AT TIME STEP  3, STRESS PERIOD 129

 HEAD WILL BE SAVED ON UNIT   37 AT END OF TIME STEP    3, STRESS PERIOD  129

 DRAWDOWN WILL BE SAVED ON UNIT   38 AT END OF TIME STEP    3, STRESS PERIOD  129
1
  VOLUMETRIC BUDGET FOR ENTIRE MODEL AT END OF TIME STEP    3, STRESS PERIOD 129
  ------------------------------------------------------------------------------

     CUMULATIVE VOLUMES      L**3       RATES FOR THIS TIME STEP      L**3/T
     ------------------                 ------------------------

           IN:                                      IN:
           ---                                      ---
             STORAGE =       19899.8555               STORAGE =       2.3582E-03
       CONSTANT HEAD =       33013.5195         CONSTANT HEAD =       1.4253E-03
            RECHARGE =        1605.9579              RECHARGE =       1.0213E-04

            TOTAL IN =       54519.3320              TOTAL IN =       3.8857E-03

          OUT:                                     OUT:
          ----                                     ----
             STORAGE =       15903.8359               STORAGE =           0.0000
       CONSTANT HEAD =       38617.2461         CONSTANT HEAD =       3.8860E-03
            RECHARGE =           0.0000              RECHARGE =           0.0000

           TOTAL OUT =       54521.0820             TOTAL OUT =       3.8860E-03

            IN - OUT =          -1.7500              IN - OUT =      -2.9802E-07

 PERCENT DISCREPANCY =          -0.00     PERCENT DISCREPANCY =          -0.01






         TIME SUMMARY AT END OF TIME STEP    3 IN STRESS PERIOD  129
                    SECONDS     MINUTES      HOURS       DAYS        YEARS
                    -----------------------------------------------------------
   TIME STEP LENGTH  86400.      1440.0      24.000      1.0000     2.73785E-03
 STRESS PERIOD TIME 2.59200E+05  4320.0      72.000      3.0000     8.21355E-03
         TOTAL TIME 1.57248E+07 2.62080E+05  4368.0      182.00     0.49829    
1
1
                            STRESS PERIOD NO.  130, LENGTH =   86400.00    
                            -----------------------------------------------

                              NUMBER OF TIME STEPS =     1

                               MULTIPLIER FOR DELT =     1.000

                            INITIAL TIME STEP SIZE =   86400.00    

 REUSING RECH FROM LAST STRESS PERIOD

 CHD NO.   LAYER   ROW   COL    START HEAD        END HEAD         IFACE           
 ----------------------------------------------------------------------------------
      1      4      3      1       109.8           109.8           0.000    
      2      5      3      1       109.8           109.8           0.000    
      3      4      3      2       109.8           109.8           0.000    
      4      5      3      2       109.8           109.8           0.000    
      5      4      3      3       109.8           109.8           0.000    
      6      5      3      3       109.8           109.8           0.000    
      7      4      3      4       109.8           109.8           0.000    
      8      5      3      4       109.8           109.8           0.000    
      9      4      3      5       109.8           109.8           0.000    
     10      5      3      5       109.8           109.8           0.000    
     11      4      3      6       109.8           109.8           0.000    
     12      5      3      6       109.8           109.8           0.000    
     13      4      3      7       109.8           109.8           0.000    
     14      5      3      7       109.8           109.8           0.000    
     15      4      3      8       109.8           109.8           0.000    
     16      5      3      8       109.8           109.8           0.000    
     17      4      2      8       109.8           109.8           0.000    
     18      5      2      8       109.8           109.8           0.000    
     19      4      2      9       109.8           109.8           0.000    
     20      5      2      9       109.8           109.8           0.000    
     21      4      2     10       109.8           109.8           0.000    
     22      5      2     10       109.8           109.8           0.000    
     23      4      2     11       109.8           109.8           0.000    
     24      5      2     11       109.8           109.8           0.000    
     25      4      2     12       109.8           109.8           0.000    
     26      5      2     12       109.8           109.8           0.000    
     27      4      2     13       109.8           109.8           0.000    
     28      5      2     13       109.8           109.8           0.000    
     29      4      2     14       109.8           109.8           0.000    
     30      5      2     14       109.8           109.8           0.000    
     31      4      2     15       109.8           109.8           0.000    
     32      5      2     15       109.8           109.8           0.000    
     33      4      2     16       109.8           109.8           0.000    
     34      5      2     16       109.8           109.8           0.000    
     35      4      2     17       109.8           109.8           0.000    
     36      5      2     17       109.8           109.8           0.000    
     37      4      2     18       109.8           109.8           0.000    
     38      5      2     18       109.8           109.8           0.000    
     39      4      2     19       109.8           109.8           0.000    
     40      5      2     19       109.8           109.8           0.000    
     41      4      2     20       109.8           109.8           0.000    
     42      5      2     20       109.8           109.8           0.000    
     43      4      2     21       109.8           109.8           0.000    
     44      5      2     21       109.8           109.8           0.000    
     45      4      2     22       109.8           109.8           0.000    
     46      5      2     22       109.8           109.8           0.000    
     47      4      2     23       109.8           109.8           0.000    
     48      5      2     23       109.8           109.8           0.000    
     49      4      2     24       109.8           109.8           0.000    
     50      5      2     24       109.8           109.8           0.000    
     51      4      2     25       109.8           109.8           0.000    
     52      5      2     25       109.8           109.8           0.000    
     53      4      2     26       109.8           109.8           0.000    
     54      5      2     26       109.8           109.8           0.000    
     55      4      1     26       109.8           109.8           0.000    
     56      5      1     26       109.8           109.8           0.000    
     57      4      1     27       109.8           109.8           0.000    
     58      5      1     27       109.8           109.8           0.000    
     59      4      1     28       109.8           109.8           0.000    
     60      5      1     28       109.8           109.8           0.000    
     61      4      1     29       109.8           109.8           0.000    
     62      5      1     29       109.8           109.8           0.000    
     63      4      1     30       109.8           109.8           0.000    
     64      5      1     30       109.8           109.8           0.000    
     65      4      1     31       109.8           109.8           0.000    
     66      5      1     31       109.8           109.8           0.000    
     67      4      1     32       109.8           109.8           0.000    
     68      5      1     32       109.8           109.8           0.000    
     69      4      1     33       109.8           109.8           0.000    
     70      5      1     33       109.8           109.8           0.000    
     71      4      1     34       109.8           109.8           0.000    
     72      5      1     34       109.8           109.8           0.000    
     73      4      1     35       109.8           109.8           0.000    
     74      5      1     35       109.8           109.8           0.000    
     75      4     36     35       109.6           109.7           0.000    
     76      5     36     35       109.6           109.7           0.000    
     77      4     35     34       109.6           109.7           0.000    
     78      5     35     34       109.6           109.7           0.000    
     79      4     36     34       109.6           109.7           0.000    
     80      5     36     34       109.6           109.7           0.000    
     81      4     36     33       109.6           109.7           0.000    
     82      5     36     33       109.6           109.7           0.000    
     83      4     36     32       109.6           109.7           0.000    
     84      5     36     32       109.6           109.7           0.000    
     85      4     37     32       109.6           109.7           0.000    
     86      5     37     32       109.6           109.7           0.000    
     87      4     37     31       109.6           109.7           0.000    
     88      5     37     31       109.6           109.7           0.000    
     89      4     38     31       109.6           109.7           0.000    
     90      5     38     31       109.6           109.7           0.000    
     91      4     38     30       109.6           109.7           0.000    
     92      5     38     30       109.6           109.7           0.000    
     93      4     39     30       109.6           109.7           0.000    
     94      5     39     30       109.6           109.7           0.000    
     95      4     39     29       109.6           109.7           0.000    
     96      5     39     29       109.6           109.7           0.000    
     97      4     40     29       109.6           109.7           0.000    
     98      5     40     29       109.6           109.7           0.000    
     99      4     40     28       109.6           109.7           0.000    
    100      5     40     28       109.6           109.7           0.000    
    101      4     40     27       109.6           109.7           0.000    
    102      5     40     27       109.6           109.7           0.000    
    103      4     41     27       109.6           109.7           0.000    
    104      5     41     27       109.6           109.7           0.000    
    105      4     41     26       109.6           109.7           0.000    
    106      5     41     26       109.6           109.7           0.000    
    107      4     41     25       109.6           109.6           0.000    
    108      5     41     25       109.6           109.6           0.000    
    109      4     41     24       109.6           109.6           0.000    
    110      5     41     24       109.6           109.6           0.000    
    111      4     41     23       109.6           109.6           0.000    
    112      5     41     23       109.6           109.6           0.000    
    113      4     41     22       109.6           109.6           0.000    
    114      5     41     22       109.6           109.6           0.000    
    115      4     42     22       109.6           109.6           0.000    
    116      5     42     22       109.6           109.6           0.000    
    117      4     42     21       109.6           109.6           0.000    
    118      5     42     21       109.6           109.6           0.000    
    119      4     42     20       109.6           109.6           0.000    
    120      5     42     20       109.6           109.6           0.000    
    121      4     42     19       109.6           109.6           0.000    
    122      5     42     19       109.6           109.6           0.000    
    123      4     43     18       109.6           109.6           0.000    
    124      5     43     18       109.6           109.6           0.000    
    125      4     42     18       109.6           109.6           0.000    
    126      5     42     18       109.6           109.6           0.000    
    127      4     42     17       109.6           109.6           0.000    
    128      5     42     17       109.6           109.6           0.000    
    129      4     42     16       109.6           109.6           0.000    
    130      5     42     16       109.6           109.6           0.000    
    131      4     42     15       109.6           109.6           0.000    
    132      5     42     15       109.6           109.6           0.000    
    133      4     43     15       109.6           109.6           0.000    
    134      5     43     15       109.6           109.6           0.000    
    135      4     43     14       109.6           109.6           0.000    
    136      5     43     14       109.6           109.6           0.000    
    137      4     43     13       109.6           109.6           0.000    
    138      5     43     13       109.6           109.6           0.000    
    139      4     43     12       109.6           109.6           0.000    
    140      5     43     12       109.6           109.6           0.000    
    141      4     43     11       109.6           109.6           0.000    
    142      5     43     11       109.6           109.6           0.000    
    143      4     43     10       109.6           109.6           0.000    
    144      5     43     10       109.6           109.6           0.000    
    145      4     44     10       109.6           109.6           0.000    
    146      5     44     10       109.6           109.6           0.000    
    147      4     44      9       109.6           109.6           0.000    
    148      5     44      9       109.6           109.6           0.000    
    149      4     44      8       109.6           109.6           0.000    
    150      5     44      8       109.6           109.6           0.000    
    151      4     44      7       109.6           109.6           0.000    
    152      5     44      7       109.6           109.6           0.000    
    153      4     44      6       109.6           109.6           0.000    
    154      5     44      6       109.6           109.6           0.000    
    155      4     44      5       109.6           109.6           0.000    
    156      5     44      5       109.6           109.6           0.000    
    157      4     44      4       109.6           109.6           0.000    
    158      5     44      4       109.6           109.6           0.000    
    159      4     44      3       109.6           109.6           0.000    
    160      5     44      3       109.6           109.6           0.000    
    161      4     45      3       109.6           109.6           0.000    
    162      5     45      3       109.6           109.6           0.000    
    163      4     45      2       109.6           109.6           0.000    
    164      5     45      2       109.6           109.6           0.000    
    165      4     45      1       109.6           109.6           0.000    
    166      5     45      1       109.6           109.6           0.000    


    166 TIME-VARIANT SPECIFIED-HEAD CELLS

 SOLVING FOR HEAD 


     3 CALLS TO PCG ROUTINE FOR TIME STEP   1 IN STRESS PERIOD  130
    61 TOTAL ITERATIONS

 MAXIMUM HEAD CHANGE FOR EACH ITERATION (1 INDICATES THE FIRST INNER ITERATION):

    HEAD CHANGE    HEAD CHANGE    HEAD CHANGE    HEAD CHANGE    HEAD CHANGE 
   LAYER,ROW,COL  LAYER,ROW,COL  LAYER,ROW,COL  LAYER,ROW,COL  LAYER,ROW,COL
 ---------------------------------------------------------------------------
  1  0.1887      0 -0.1100      0  0.6684E-01  0 -0.5159E-01  0  0.7934E-01
   (  5, 43,  5)  (  5, 35,  1)  (  5, 31,  2)  (  5, 27,  3)  (  5, 37,  1)
  0 -0.3883E-01  0  0.4680E-01  0 -0.5130E-01  0 -0.2997E-01  0 -0.2235E-01
   (  5, 35,  2)  (  5, 40,  1)  (  5, 37,  1)  (  5, 37,  6)  (  5, 40,  1)
  0 -0.1682E-01  0  0.1550E-01  0 -0.8186E-02  0  0.8692E-02  0 -0.7871E-02
   (  5, 35,  9)  (  5, 33,  9)  (  5, 33,  5)  (  5, 30,  1)  (  5, 33,  3)
  0  0.5989E-02  0 -0.6557E-02  0  0.4063E-02  0 -0.2912E-02  0  0.2645E-02
   (  5, 35,  2)  (  5, 34,  8)  (  5, 38,  8)  (  5, 35,  7)  (  5, 33,  8)
  0 -0.2001E-02  0  0.1442E-02  0  0.1500E-02  0  0.8940E-03  0 -0.1484E-02
   (  5, 40,  2)  (  5, 38,  2)  (  5, 13,  1)  (  5, 31,  4)  (  5, 13,  1)
  0  0.8995E-03  0 -0.6663E-03  0  0.4820E-03  0  0.4930E-03  0  0.3282E-03
   (  5, 39,  2)  (  5, 37,  1)  (  5, 34,  4)  (  5, 40,  2)  (  5, 12,  1)
  1  0.1629E-03  0 -0.1796E-03  0  0.1041E-03  0  0.1599E-03  0  0.9586E-04
   (  5, 19,  9)  (  5, 39,  2)  (  5, 29,  3)  (  5, 41,  2)  (  5, 25,  5)
  0 -0.9180E-04  0 -0.1376E-03  0  0.1115E-03  0 -0.1035E-03  0 -0.6203E-04
   (  5, 26,  3)  (  5, 34,  2)  (  5, 36,  2)  (  5, 37,  1)  (  5, 34,  3)
  0 -0.7008E-04  0  0.4960E-04  0  0.1901E-04  0 -0.3191E-04  0 -0.2408E-04
   (  5, 41,  2)  (  5, 39,  1)  (  5, 29,  1)  (  5, 32,  4)  (  5, 29,  8)
  0  0.1491E-04  0 -0.1769E-04  0  0.9977E-05  0  0.1295E-04  0 -0.6999E-05
   (  5, 32,  9)  (  5, 35,  8)  (  5, 35,  2)  (  5, 41,  1)  (  5, 31,  8)
  0  0.6119E-05  0 -0.4142E-05  0  0.5275E-05  0 -0.3561E-05  0  0.3766E-05
   (  5, 33,  8)  (  5, 32,  5)  (  5, 39,  1)  (  5, 39,  4)  (  5, 36,  2)
  0 -0.3407E-05  0 -0.1764E-05  0 -0.1781E-05  0 -0.1147E-05  0  0.7941E-06
   (  5, 38,  6)  (  5, 31,  1)  (  5, 37,  1)  (  5, 34,  4)  (  5, 37,  2)
  1 -0.5626E-06
   (  5, 36,  2)

 MAXIMUM RESIDUAL FOR EACH ITERATION (1 INDICATES THE FIRST INNER ITERATION):

    RESIDUAL       RESIDUAL       RESIDUAL       RESIDUAL       RESIDUAL    
   LAYER,ROW,COL  LAYER,ROW,COL  LAYER,ROW,COL  LAYER,ROW,COL  LAYER,ROW,COL
 ---------------------------------------------------------------------------
  1 -0.1057E-02  0 -0.8187E-03  0 -0.6970E-03  0 -0.5695E-03  0 -0.4689E-03
   (  4, 44,  2)  (  4, 44,  2)  (  4, 44,  2)  (  4, 44,  2)  (  4, 35, 35)
  0 -0.4111E-03  0 -0.3492E-03  0 -0.2805E-03  0 -0.2270E-03  0 -0.1781E-03
   (  3, 40, 27)  (  3, 40, 27)  (  3, 40, 27)  (  3, 40, 27)  (  4, 35, 35)
  0 -0.1398E-03  0 -0.1047E-03  0 -0.9093E-04  0 -0.7508E-04  0  0.6025E-04
   (  4, 35, 35)  (  4, 35, 35)  (  4, 35, 35)  (  4, 35, 35)  (  3, 35, 35)
  0  0.5456E-04  0  0.4156E-04  0  0.3296E-04  0  0.2722E-04  0  0.2323E-04
   (  3, 35, 35)  (  3, 35, 35)  (  4, 34, 35)  (  4, 34, 35)  (  4, 34, 35)
  0  0.2018E-04  0  0.1845E-04  0  0.1511E-04  0  0.1447E-04  0  0.1162E-04
   (  4, 34, 35)  (  4, 34, 35)  (  4, 34, 35)  (  4, 34, 35)  (  4, 34, 35)
  0  0.9574E-05  0  0.8828E-05  0  0.8010E-05  0  0.6114E-05  0  0.4327E-05
   (  4, 34, 35)  (  4, 34, 35)  (  4, 34, 35)  (  4, 34, 35)  (  4, 34, 35)
  1  0.4067E-05  0  0.3521E-05  0  0.3409E-05  0  0.2952E-05  0  0.2461E-05
   (  4, 34, 35)  (  4, 34, 35)  (  4, 34, 35)  (  4, 34, 35)  (  4, 34, 35)
  0  0.2205E-05  0  0.1792E-05  0  0.1594E-05  0  0.1131E-05  0  0.8357E-06
   (  4, 34, 35)  (  4, 34, 35)  (  4, 34, 35)  (  4, 34, 35)  (  4, 34, 35)
  0  0.6617E-06  0 -0.4674E-06  0 -0.4485E-06  0 -0.3622E-06  0 -0.2949E-06
   (  4, 34, 35)  (  4, 35, 35)  (  4, 35, 35)  (  4, 35, 35)  (  4, 35, 35)
  0 -0.2219E-06  0 -0.1794E-06  0 -0.1641E-06  0 -0.1264E-06  0 -0.9344E-07
   (  4, 35, 35)  (  4, 35, 35)  (  4, 35, 35)  (  4, 35, 35)  (  4, 35, 35)
  0 -0.6857E-07  0 -0.6258E-07  0 -0.4984E-07  0 -0.4317E-07  0 -0.3123E-07
   (  4, 35, 35)  (  4, 35, 35)  (  4, 35, 35)  (  4, 35, 35)  (  4, 35, 35)
  0 -0.2232E-07  0 -0.1672E-07  0 -0.1199E-07  0 -0.1026E-07  0 -0.9691E-08
   (  4, 35, 35)  (  4, 35, 35)  (  4, 35, 35)  (  3, 36, 35)  (  3, 36, 35)
  1 -0.9601E-08
   (  3, 36, 35)



 OUTPUT CONTROL FOR STRESS PERIOD  130   TIME STEP    1
    SAVE HEAD FOR ALL LAYERS
    SAVE DRAWDOWN FOR ALL LAYERS
    SAVE BUDGET
    PRINT BUDGET
 UBDSV1 SAVING "         STORAGE" ON UNIT   9 AT TIME STEP  1, STRESS PERIOD 130
 UBDSV2 SAVING "   CONSTANT HEAD" ON UNIT   9 AT TIME STEP  1, STRESS PERIOD 130
 UBDSV1 SAVING "FLOW RIGHT FACE " ON UNIT   9 AT TIME STEP  1, STRESS PERIOD 130
 UBDSV1 SAVING "FLOW FRONT FACE " ON UNIT   9 AT TIME STEP  1, STRESS PERIOD 130
 UBDSV1 SAVING "FLOW LOWER FACE " ON UNIT   9 AT TIME STEP  1, STRESS PERIOD 130
 UBDSV3 SAVING "        RECHARGE" ON UNIT   9 AT TIME STEP  1, STRESS PERIOD 130

 HEAD WILL BE SAVED ON UNIT   37 AT END OF TIME STEP    1, STRESS PERIOD  130

 DRAWDOWN WILL BE SAVED ON UNIT   38 AT END OF TIME STEP    1, STRESS PERIOD  130
1
  VOLUMETRIC BUDGET FOR ENTIRE MODEL AT END OF TIME STEP    1, STRESS PERIOD 130
  ------------------------------------------------------------------------------

     CUMULATIVE VOLUMES      L**3       RATES FOR THIS TIME STEP      L**3/T
     ------------------                 ------------------------

           IN:                                      IN:
           ---                                      ---
             STORAGE =       19916.9531               STORAGE =       1.9789E-04
       CONSTANT HEAD =       33149.6172         CONSTANT HEAD =       1.5752E-03
            RECHARGE =        1614.7819              RECHARGE =       1.0213E-04

            TOTAL IN =       54681.3516              TOTAL IN =       1.8752E-03

          OUT:                                     OUT:
          ----                                     ----
             STORAGE =       15948.2900               STORAGE =       5.1451E-04
       CONSTANT HEAD =       38734.8086         CONSTANT HEAD =       1.3607E-03
            RECHARGE =           0.0000              RECHARGE =           0.0000

           TOTAL OUT =       54683.0977             TOTAL OUT =       1.8752E-03

            IN - OUT =          -1.7461              IN - OUT =       2.0838E-08

 PERCENT DISCREPANCY =          -0.00     PERCENT DISCREPANCY =           0.00






         TIME SUMMARY AT END OF TIME STEP    1 IN STRESS PERIOD  130
                    SECONDS     MINUTES      HOURS       DAYS        YEARS
                    -----------------------------------------------------------
   TIME STEP LENGTH  86400.      1440.0      24.000      1.0000     2.73785E-03
 STRESS PERIOD TIME  86400.      1440.0      24.000      1.0000     2.73785E-03
         TOTAL TIME 1.58112E+07 2.63520E+05  4392.0      183.00     0.50103    
1
1
                            STRESS PERIOD NO.  131, LENGTH =   86400.00    
                            -----------------------------------------------

                              NUMBER OF TIME STEPS =     1

                               MULTIPLIER FOR DELT =     1.000

                            INITIAL TIME STEP SIZE =   86400.00    

                 RECHARGE =   0.00000    

 CHD NO.   LAYER   ROW   COL    START HEAD        END HEAD         IFACE           
 ----------------------------------------------------------------------------------
      1      4      3      1       109.8           109.9           0.000    
      2      5      3      1       109.8           109.9           0.000    
      3      4      3      2       109.8           109.9           0.000    
      4      5      3      2       109.8           109.9           0.000    
      5      4      3      3       109.8           109.9           0.000    
      6      5      3      3       109.8           109.9           0.000    
      7      4      3      4       109.8           109.9           0.000    
      8      5      3      4       109.8           109.9           0.000    
      9      4      3      5       109.8           109.9           0.000    
     10      5      3      5       109.8           109.9           0.000    
     11      4      3      6       109.8           109.9           0.000    
     12      5      3      6       109.8           109.9           0.000    
     13      4      3      7       109.8           109.9           0.000    
     14      5      3      7       109.8           109.9           0.000    
     15      4      3      8       109.8           109.9           0.000    
     16      5      3      8       109.8           109.9           0.000    
     17      4      2      8       109.8           109.9           0.000    
     18      5      2      8       109.8           109.9           0.000    
     19      4      2      9       109.8           109.9           0.000    
     20      5      2      9       109.8           109.9           0.000    
     21      4      2     10       109.8           109.9           0.000    
     22      5      2     10       109.8           109.9           0.000    
     23      4      2     11       109.8           109.9           0.000    
     24      5      2     11       109.8           109.9           0.000    
     25      4      2     12       109.8           109.9           0.000    
     26      5      2     12       109.8           109.9           0.000    
     27      4      2     13       109.8           109.9           0.000    
     28      5      2     13       109.8           109.9           0.000    
     29      4      2     14       109.8           109.9           0.000    
     30      5      2     14       109.8           109.9           0.000    
     31      4      2     15       109.8           109.9           0.000    
     32      5      2     15       109.8           109.9           0.000    
     33      4      2     16       109.8           109.9           0.000    
     34      5      2     16       109.8           109.9           0.000    
     35      4      2     17       109.8           109.9           0.000    
     36      5      2     17       109.8           109.9           0.000    
     37      4      2     18       109.8           109.9           0.000    
     38      5      2     18       109.8           109.9           0.000    
     39      4      2     19       109.8           109.9           0.000    
     40      5      2     19       109.8           109.9           0.000    
     41      4      2     20       109.8           109.9           0.000    
     42      5      2     20       109.8           109.9           0.000    
     43      4      2     21       109.8           109.9           0.000    
     44      5      2     21       109.8           109.9           0.000    
     45      4      2     22       109.8           109.9           0.000    
     46      5      2     22       109.8           109.9           0.000    
     47      4      2     23       109.8           109.9           0.000    
     48      5      2     23       109.8           109.9           0.000    
     49      4      2     24       109.8           109.9           0.000    
     50      5      2     24       109.8           109.9           0.000    
     51      4      2     25       109.8           109.9           0.000    
     52      5      2     25       109.8           109.9           0.000    
     53      4      2     26       109.8           109.9           0.000    
     54      5      2     26       109.8           109.9           0.000    
     55      4      1     26       109.8           109.9           0.000    
     56      5      1     26       109.8           109.9           0.000    
     57      4      1     27       109.8           109.9           0.000    
     58      5      1     27       109.8           109.9           0.000    
     59      4      1     28       109.8           109.9           0.000    
     60      5      1     28       109.8           109.9           0.000    
     61      4      1     29       109.8           109.9           0.000    
     62      5      1     29       109.8           109.9           0.000    
     63      4      1     30       109.8           109.9           0.000    
     64      5      1     30       109.8           109.9           0.000    
     65      4      1     31       109.8           109.9           0.000    
     66      5      1     31       109.8           109.9           0.000    
     67      4      1     32       109.8           109.9           0.000    
     68      5      1     32       109.8           109.9           0.000    
     69      4      1     33       109.8           109.9           0.000    
     70      5      1     33       109.8           109.9           0.000    
     71      4      1     34       109.8           109.9           0.000    
     72      5      1     34       109.8           109.9           0.000    
     73      4      1     35       109.8           109.9           0.000    
     74      5      1     35       109.8           109.9           0.000    
     75      4     36     35       109.7           109.7           0.000    
     76      5     36     35       109.7           109.7           0.000    
     77      4     35     34       109.7           109.7           0.000    
     78      5     35     34       109.7           109.7           0.000    
     79      4     36     34       109.7           109.7           0.000    
     80      5     36     34       109.7           109.7           0.000    
     81      4     36     33       109.7           109.7           0.000    
     82      5     36     33       109.7           109.7           0.000    
     83      4     36     32       109.7           109.7           0.000    
     84      5     36     32       109.7           109.7           0.000    
     85      4     37     32       109.7           109.7           0.000    
     86      5     37     32       109.7           109.7           0.000    
     87      4     37     31       109.7           109.7           0.000    
     88      5     37     31       109.7           109.7           0.000    
     89      4     38     31       109.7           109.7           0.000    
     90      5     38     31       109.7           109.7           0.000    
     91      4     38     30       109.7           109.7           0.000    
     92      5     38     30       109.7           109.7           0.000    
     93      4     39     30       109.7           109.7           0.000    
     94      5     39     30       109.7           109.7           0.000    
     95      4     39     29       109.7           109.7           0.000    
     96      5     39     29       109.7           109.7           0.000    
     97      4     40     29       109.7           109.7           0.000    
     98      5     40     29       109.7           109.7           0.000    
     99      4     40     28       109.7           109.7           0.000    
    100      5     40     28       109.7           109.7           0.000    
    101      4     40     27       109.7           109.7           0.000    
    102      5     40     27       109.7           109.7           0.000    
    103      4     41     27       109.7           109.7           0.000    
    104      5     41     27       109.7           109.7           0.000    
    105      4     41     26       109.7           109.7           0.000    
    106      5     41     26       109.7           109.7           0.000    
    107      4     41     25       109.6           109.7           0.000    
    108      5     41     25       109.6           109.7           0.000    
    109      4     41     24       109.6           109.7           0.000    
    110      5     41     24       109.6           109.7           0.000    
    111      4     41     23       109.6           109.7           0.000    
    112      5     41     23       109.6           109.7           0.000    
    113      4     41     22       109.6           109.7           0.000    
    114      5     41     22       109.6           109.7           0.000    
    115      4     42     22       109.6           109.7           0.000    
    116      5     42     22       109.6           109.7           0.000    
    117      4     42     21       109.6           109.7           0.000    
    118      5     42     21       109.6           109.7           0.000    
    119      4     42     20       109.6           109.7           0.000    
    120      5     42     20       109.6           109.7           0.000    
    121      4     42     19       109.6           109.7           0.000    
    122      5     42     19       109.6           109.7           0.000    
    123      4     43     18       109.6           109.7           0.000    
    124      5     43     18       109.6           109.7           0.000    
    125      4     42     18       109.6           109.7           0.000    
    126      5     42     18       109.6           109.7           0.000    
    127      4     42     17       109.6           109.7           0.000    
    128      5     42     17       109.6           109.7           0.000    
    129      4     42     16       109.6           109.7           0.000    
    130      5     42     16       109.6           109.7           0.000    
    131      4     42     15       109.6           109.7           0.000    
    132      5     42     15       109.6           109.7           0.000    
    133      4     43     15       109.6           109.7           0.000    
    134      5     43     15       109.6           109.7           0.000    
    135      4     43     14       109.6           109.7           0.000    
    136      5     43     14       109.6           109.7           0.000    
    137      4     43     13       109.6           109.7           0.000    
    138      5     43     13       109.6           109.7           0.000    
    139      4     43     12       109.6           109.7           0.000    
    140      5     43     12       109.6           109.7           0.000    
    141      4     43     11       109.6           109.7           0.000    
    142      5     43     11       109.6           109.7           0.000    
    143      4     43     10       109.6           109.7           0.000    
    144      5     43     10       109.6           109.7           0.000    
    145      4     44     10       109.6           109.7           0.000    
    146      5     44     10       109.6           109.7           0.000    
    147      4     44      9       109.6           109.7           0.000    
    148      5     44      9       109.6           109.7           0.000    
    149      4     44      8       109.6           109.7           0.000    
    150      5     44      8       109.6           109.7           0.000    
    151      4     44      7       109.6           109.7           0.000    
    152      5     44      7       109.6           109.7           0.000    
    153      4     44      6       109.6           109.7           0.000    
    154      5     44      6       109.6           109.7           0.000    
    155      4     44      5       109.6           109.7           0.000    
    156      5     44      5       109.6           109.7           0.000    
    157      4     44      4       109.6           109.7           0.000    
    158      5     44      4       109.6           109.7           0.000    
    159      4     44      3       109.6           109.7           0.000    
    160      5     44      3       109.6           109.7           0.000    
    161      4     45      3       109.6           109.7           0.000    
    162      5     45      3       109.6           109.7           0.000    
    163      4     45      2       109.6           109.7           0.000    
    164      5     45      2       109.6           109.7           0.000    
    165      4     45      1       109.6           109.7           0.000    
    166      5     45      1       109.6           109.7           0.000    


    166 TIME-VARIANT SPECIFIED-HEAD CELLS

 SOLVING FOR HEAD 


     4 CALLS TO PCG ROUTINE FOR TIME STEP   1 IN STRESS PERIOD  131
    67 TOTAL ITERATIONS

 MAXIMUM HEAD CHANGE FOR EACH ITERATION (1 INDICATES THE FIRST INNER ITERATION):

    HEAD CHANGE    HEAD CHANGE    HEAD CHANGE    HEAD CHANGE    HEAD CHANGE 
   LAYER,ROW,COL  LAYER,ROW,COL  LAYER,ROW,COL  LAYER,ROW,COL  LAYER,ROW,COL
 ---------------------------------------------------------------------------
  1  0.2745      0 -0.1550      0  0.8900E-01  0 -0.7375E-01  0  0.1031    
   (  5, 43,  5)  (  5, 35,  1)  (  5, 31,  2)  (  5, 41,  2)  (  5, 37,  1)
  0  0.5220E-01  0  0.6462E-01  0 -0.7175E-01  0 -0.4050E-01  0 -0.3227E-01
   (  5, 39,  1)  (  5, 40,  1)  (  5, 37,  1)  (  5, 37,  6)  (  5, 40,  1)
  0 -0.2523E-01  0 -0.1291E-01  0  0.2562E-01  0 -0.1734E-01  0  0.1091E-01
   (  5, 36, 10)  (  5, 30,  3)  (  5, 33,  9)  (  5, 30,  8)  (  5, 35,  8)
  0  0.8790E-02  0 -0.8418E-02  0  0.5948E-02  0 -0.4990E-02  0 -0.4261E-02
   (  5, 35,  2)  (  5, 34,  9)  (  5, 31,  9)  (  5, 30, 10)  (  5, 36,  7)
  0  0.3154E-02  0 -0.2512E-02  0  0.2450E-02  0  0.2572E-02  0 -0.1871E-02
   (  5, 29,  1)  (  5, 36,  2)  (  5, 36,  4)  (  5, 14,  1)  (  5, 13,  1)
  0 -0.1142E-02  0 -0.7419E-03  0  0.6947E-03  0 -0.6722E-03  0 -0.3102E-03
   (  5, 37,  1)  (  5, 34,  3)  (  5, 39,  4)  (  5, 38,  1)  (  5, 31,  3)
  1  0.2900E-03  0  0.3732E-03  0 -0.3839E-03  0  0.3702E-03  0  0.3703E-03
   (  5, 29,  2)  (  5, 12,  1)  (  5, 39,  2)  (  5, 34,  3)  (  5, 37,  1)
  0 -0.2531E-03  0  0.1822E-03  0 -0.2082E-03  0  0.1674E-03  0 -0.1174E-03
   (  5, 39,  1)  (  5, 35,  2)  (  5, 37,  2)  (  5, 38,  4)  (  5, 37,  1)
  0  0.7137E-04  0  0.1124E-03  0 -0.9886E-04  0 -0.7309E-04  0  0.4901E-04
   (  5, 31,  3)  (  5, 39,  1)  (  5, 41,  2)  (  5, 32, 10)  (  5, 34,  9)
  0 -0.4254E-04  0  0.2530E-04  0  0.4039E-04  0 -0.2675E-04  0  0.1807E-04
   (  5, 35,  8)  (  5, 35,  1)  (  5, 37,  8)  (  5, 36,  6)  (  5, 32,  8)
  0 -0.1284E-04  0  0.1869E-04  0 -0.7806E-05  0 -0.1138E-04  0  0.7345E-05
   (  5, 28,  1)  (  5, 38,  1)  (  5, 40,  5)  (  5, 40,  1)  (  5, 42,  5)
  0 -0.7086E-05  0  0.3708E-05  0 -0.3571E-05  0 -0.1782E-05  0  0.1979E-05
   (  5, 37,  1)  (  5, 39,  6)  (  5, 43,  7)  (  5, 32,  1)  (  5, 37,  2)
  1 -0.1301E-05  0  0.1420E-05  0  0.1095E-05  0  0.1442E-05  0 -0.1064E-05
   (  5, 36,  2)  (  5, 31,  2)  (  5, 35,  3)  (  5, 31,  7)  (  5, 39,  6)
  0 -0.7827E-06  1  0.7907E-06
   (  5, 36,  4)  (  5, 38,  5)

 MAXIMUM RESIDUAL FOR EACH ITERATION (1 INDICATES THE FIRST INNER ITERATION):

    RESIDUAL       RESIDUAL       RESIDUAL       RESIDUAL       RESIDUAL    
   LAYER,ROW,COL  LAYER,ROW,COL  LAYER,ROW,COL  LAYER,ROW,COL  LAYER,ROW,COL
 ---------------------------------------------------------------------------
  1 -0.1179E-02  0 -0.8746E-03  0 -0.7557E-03  0 -0.6799E-03  0 -0.5637E-03
   (  4, 44,  2)  (  4, 44,  2)  (  4, 35, 35)  (  4, 35, 35)  (  4, 35, 35)
  0 -0.4744E-03  0 -0.3978E-03  0 -0.3118E-03  0 -0.2463E-03  0  0.2059E-03
   (  3, 40, 27)  (  3, 40, 27)  (  3, 40, 27)  (  3, 40, 27)  (  4, 43,  4)
  0  0.1670E-03  0  0.1573E-03  0  0.1283E-03  0  0.1002E-03  0  0.8191E-04
   (  4, 43,  4)  (  4, 43,  4)  (  4, 43,  4)  (  4, 43,  4)  (  4, 43,  4)
  0  0.7458E-04  0  0.6250E-04  0  0.4924E-04  0  0.3983E-04  0  0.3179E-04
   (  4, 44,  2)  (  4, 44,  2)  (  4, 44,  2)  (  4, 44,  2)  (  4, 44,  2)
  0  0.2890E-04  0  0.2629E-04  0  0.2080E-04  0  0.1637E-04  0  0.1302E-04
   (  4, 44,  2)  (  4, 44,  2)  (  4, 34, 35)  (  4, 34, 35)  (  4, 34, 35)
  0  0.1047E-04  0  0.9660E-05  0  0.8787E-05  0  0.6778E-05  0  0.6456E-05
   (  4, 34, 35)  (  4, 34, 35)  (  4, 34, 35)  (  4, 34, 35)  (  4, 34, 35)
  1  0.6415E-05  0  0.5914E-05  0  0.5570E-05  0  0.5106E-05  0  0.4271E-05
   (  4, 34, 35)  (  4, 34, 35)  (  4, 34, 35)  (  4, 34, 35)  (  4, 34, 35)
  0  0.3266E-05  0  0.2791E-05  0  0.2176E-05  0  0.1595E-05  0  0.1269E-05
   (  4, 34, 35)  (  4, 34, 35)  (  4, 34, 35)  (  4, 34, 35)  (  4, 34, 35)
  0  0.1160E-05  0  0.9415E-06  0  0.6975E-06  0  0.5369E-06  0 -0.4226E-06
   (  4, 34, 35)  (  4, 34, 35)  (  4, 34, 35)  (  4, 34, 35)  (  4, 35, 35)
  0 -0.3414E-06  0 -0.3149E-06  0 -0.2431E-06  0 -0.1778E-06  0 -0.1436E-06
   (  4, 35, 35)  (  4, 35, 35)  (  4, 35, 35)  (  4, 35, 35)  (  4, 35, 35)
  0 -0.1255E-06  0 -0.9454E-07  0 -0.8372E-07  0 -0.6280E-07  0 -0.4646E-07
   (  4, 35, 35)  (  4, 35, 35)  (  4, 35, 35)  (  4, 35, 35)  (  4, 35, 35)
  0 -0.3844E-07  0 -0.2851E-07  0 -0.1962E-07  0 -0.1846E-07  0 -0.1658E-07
   (  4, 35, 35)  (  4, 35, 35)  (  3, 36, 35)  (  3, 36, 35)  (  3, 36, 35)
  1 -0.1624E-07  0 -0.1563E-07  0 -0.1488E-07  0 -0.1255E-07  0 -0.1058E-07
   (  3, 36, 35)  (  3, 36, 35)  (  3, 36, 35)  (  3, 36, 35)  (  3, 36, 35)
  0 -0.9059E-08  1 -0.8919E-08
   (  3, 36, 35)  (  3, 36, 35)



 OUTPUT CONTROL FOR STRESS PERIOD  131   TIME STEP    1
    SAVE HEAD FOR ALL LAYERS
    SAVE DRAWDOWN FOR ALL LAYERS
    SAVE BUDGET
    PRINT BUDGET
 UBDSV1 SAVING "         STORAGE" ON UNIT   9 AT TIME STEP  1, STRESS PERIOD 131
 UBDSV2 SAVING "   CONSTANT HEAD" ON UNIT   9 AT TIME STEP  1, STRESS PERIOD 131
 UBDSV1 SAVING "FLOW RIGHT FACE " ON UNIT   9 AT TIME STEP  1, STRESS PERIOD 131
 UBDSV1 SAVING "FLOW FRONT FACE " ON UNIT   9 AT TIME STEP  1, STRESS PERIOD 131
 UBDSV1 SAVING "FLOW LOWER FACE " ON UNIT   9 AT TIME STEP  1, STRESS PERIOD 131
 UBDSV3 SAVING "        RECHARGE" ON UNIT   9 AT TIME STEP  1, STRESS PERIOD 131

 HEAD WILL BE SAVED ON UNIT   37 AT END OF TIME STEP    1, STRESS PERIOD  131

 DRAWDOWN WILL BE SAVED ON UNIT   38 AT END OF TIME STEP    1, STRESS PERIOD  131
1
  VOLUMETRIC BUDGET FOR ENTIRE MODEL AT END OF TIME STEP    1, STRESS PERIOD 131
  ------------------------------------------------------------------------------

     CUMULATIVE VOLUMES      L**3       RATES FOR THIS TIME STEP      L**3/T
     ------------------                 ------------------------

           IN:                                      IN:
           ---                                      ---
             STORAGE =       19916.9531               STORAGE =           0.0000
       CONSTANT HEAD =       33360.1445         CONSTANT HEAD =       2.4367E-03
            RECHARGE =        1614.7819              RECHARGE =           0.0000

            TOTAL IN =       54891.8789              TOTAL IN =       2.4367E-03

          OUT:                                     OUT:
          ----                                     ----
             STORAGE =       16133.5078               STORAGE =       2.1437E-03
       CONSTANT HEAD =       38760.1016         CONSTANT HEAD =       2.9274E-04
            RECHARGE =           0.0000              RECHARGE =           0.0000

           TOTAL OUT =       54893.6094             TOTAL OUT =       2.4365E-03

            IN - OUT =          -1.7305              IN - OUT =       1.9860E-07

 PERCENT DISCREPANCY =          -0.00     PERCENT DISCREPANCY =           0.01






         TIME SUMMARY AT END OF TIME STEP    1 IN STRESS PERIOD  131
                    SECONDS     MINUTES      HOURS       DAYS        YEARS
                    -----------------------------------------------------------
   TIME STEP LENGTH  86400.      1440.0      24.000      1.0000     2.73785E-03
 STRESS PERIOD TIME  86400.      1440.0      24.000      1.0000     2.73785E-03
         TOTAL TIME 1.58976E+07 2.64960E+05  4416.0      184.00     0.50376    
1
1
                            STRESS PERIOD NO.  132, LENGTH =   86400.00    
                            -----------------------------------------------

                              NUMBER OF TIME STEPS =     1

                               MULTIPLIER FOR DELT =     1.000

                            INITIAL TIME STEP SIZE =   86400.00    

 REUSING RECH FROM LAST STRESS PERIOD

 CHD NO.   LAYER   ROW   COL    START HEAD        END HEAD         IFACE           
 ----------------------------------------------------------------------------------
      1      4      3      1       109.9           109.9           0.000    
      2      5      3      1       109.9           109.9           0.000    
      3      4      3      2       109.9           109.9           0.000    
      4      5      3      2       109.9           109.9           0.000    
      5      4      3      3       109.9           109.9           0.000    
      6      5      3      3       109.9           109.9           0.000    
      7      4      3      4       109.9           109.9           0.000    
      8      5      3      4       109.9           109.9           0.000    
      9      4      3      5       109.9           109.9           0.000    
     10      5      3      5       109.9           109.9           0.000    
     11      4      3      6       109.9           109.9           0.000    
     12      5      3      6       109.9           109.9           0.000    
     13      4      3      7       109.9           109.9           0.000    
     14      5      3      7       109.9           109.9           0.000    
     15      4      3      8       109.9           109.9           0.000    
     16      5      3      8       109.9           109.9           0.000    
     17      4      2      8       109.9           109.9           0.000    
     18      5      2      8       109.9           109.9           0.000    
     19      4      2      9       109.9           109.9           0.000    
     20      5      2      9       109.9           109.9           0.000    
     21      4      2     10       109.9           109.9           0.000    
     22      5      2     10       109.9           109.9           0.000    
     23      4      2     11       109.9           109.9           0.000    
     24      5      2     11       109.9           109.9           0.000    
     25      4      2     12       109.9           109.9           0.000    
     26      5      2     12       109.9           109.9           0.000    
     27      4      2     13       109.9           109.9           0.000    
     28      5      2     13       109.9           109.9           0.000    
     29      4      2     14       109.9           109.9           0.000    
     30      5      2     14       109.9           109.9           0.000    
     31      4      2     15       109.9           109.9           0.000    
     32      5      2     15       109.9           109.9           0.000    
     33      4      2     16       109.9           109.9           0.000    
     34      5      2     16       109.9           109.9           0.000    
     35      4      2     17       109.9           109.9           0.000    
     36      5      2     17       109.9           109.9           0.000    
     37      4      2     18       109.9           109.9           0.000    
     38      5      2     18       109.9           109.9           0.000    
     39      4      2     19       109.9           109.9           0.000    
     40      5      2     19       109.9           109.9           0.000    
     41      4      2     20       109.9           109.9           0.000    
     42      5      2     20       109.9           109.9           0.000    
     43      4      2     21       109.9           109.9           0.000    
     44      5      2     21       109.9           109.9           0.000    
     45      4      2     22       109.9           109.9           0.000    
     46      5      2     22       109.9           109.9           0.000    
     47      4      2     23       109.9           109.9           0.000    
     48      5      2     23       109.9           109.9           0.000    
     49      4      2     24       109.9           109.9           0.000    
     50      5      2     24       109.9           109.9           0.000    
     51      4      2     25       109.9           109.9           0.000    
     52      5      2     25       109.9           109.9           0.000    
     53      4      2     26       109.9           109.9           0.000    
     54      5      2     26       109.9           109.9           0.000    
     55      4      1     26       109.9           109.9           0.000    
     56      5      1     26       109.9           109.9           0.000    
     57      4      1     27       109.9           109.9           0.000    
     58      5      1     27       109.9           109.9           0.000    
     59      4      1     28       109.9           109.9           0.000    
     60      5      1     28       109.9           109.9           0.000    
     61      4      1     29       109.9           109.9           0.000    
     62      5      1     29       109.9           109.9           0.000    
     63      4      1     30       109.9           109.9           0.000    
     64      5      1     30       109.9           109.9           0.000    
     65      4      1     31       109.9           109.9           0.000    
     66      5      1     31       109.9           109.9           0.000    
     67      4      1     32       109.9           109.9           0.000    
     68      5      1     32       109.9           109.9           0.000    
     69      4      1     33       109.9           109.9           0.000    
     70      5      1     33       109.9           109.9           0.000    
     71      4      1     34       109.9           109.9           0.000    
     72      5      1     34       109.9           109.9           0.000    
     73      4      1     35       109.9           109.9           0.000    
     74      5      1     35       109.9           109.9           0.000    
     75      4     36     35       109.7           109.7           0.000    
     76      5     36     35       109.7           109.7           0.000    
     77      4     35     34       109.7           109.7           0.000    
     78      5     35     34       109.7           109.7           0.000    
     79      4     36     34       109.7           109.7           0.000    
     80      5     36     34       109.7           109.7           0.000    
     81      4     36     33       109.7           109.7           0.000    
     82      5     36     33       109.7           109.7           0.000    
     83      4     36     32       109.7           109.7           0.000    
     84      5     36     32       109.7           109.7           0.000    
     85      4     37     32       109.7           109.7           0.000    
     86      5     37     32       109.7           109.7           0.000    
     87      4     37     31       109.7           109.7           0.000    
     88      5     37     31       109.7           109.7           0.000    
     89      4     38     31       109.7           109.7           0.000    
     90      5     38     31       109.7           109.7           0.000    
     91      4     38     30       109.7           109.7           0.000    
     92      5     38     30       109.7           109.7           0.000    
     93      4     39     30       109.7           109.7           0.000    
     94      5     39     30       109.7           109.7           0.000    
     95      4     39     29       109.7           109.7           0.000    
     96      5     39     29       109.7           109.7           0.000    
     97      4     40     29       109.7           109.7           0.000    
     98      5     40     29       109.7           109.7           0.000    
     99      4     40     28       109.7           109.7           0.000    
    100      5     40     28       109.7           109.7           0.000    
    101      4     40     27       109.7           109.7           0.000    
    102      5     40     27       109.7           109.7           0.000    
    103      4     41     27       109.7           109.7           0.000    
    104      5     41     27       109.7           109.7           0.000    
    105      4     41     26       109.7           109.7           0.000    
    106      5     41     26       109.7           109.7           0.000    
    107      4     41     25       109.7           109.7           0.000    
    108      5     41     25       109.7           109.7           0.000    
    109      4     41     24       109.7           109.7           0.000    
    110      5     41     24       109.7           109.7           0.000    
    111      4     41     23       109.7           109.7           0.000    
    112      5     41     23       109.7           109.7           0.000    
    113      4     41     22       109.7           109.7           0.000    
    114      5     41     22       109.7           109.7           0.000    
    115      4     42     22       109.7           109.7           0.000    
    116      5     42     22       109.7           109.7           0.000    
    117      4     42     21       109.7           109.7           0.000    
    118      5     42     21       109.7           109.7           0.000    
    119      4     42     20       109.7           109.7           0.000    
    120      5     42     20       109.7           109.7           0.000    
    121      4     42     19       109.7           109.7           0.000    
    122      5     42     19       109.7           109.7           0.000    
    123      4     43     18       109.7           109.7           0.000    
    124      5     43     18       109.7           109.7           0.000    
    125      4     42     18       109.7           109.7           0.000    
    126      5     42     18       109.7           109.7           0.000    
    127      4     42     17       109.7           109.7           0.000    
    128      5     42     17       109.7           109.7           0.000    
    129      4     42     16       109.7           109.7           0.000    
    130      5     42     16       109.7           109.7           0.000    
    131      4     42     15       109.7           109.7           0.000    
    132      5     42     15       109.7           109.7           0.000    
    133      4     43     15       109.7           109.7           0.000    
    134      5     43     15       109.7           109.7           0.000    
    135      4     43     14       109.7           109.7           0.000    
    136      5     43     14       109.7           109.7           0.000    
    137      4     43     13       109.7           109.7           0.000    
    138      5     43     13       109.7           109.7           0.000    
    139      4     43     12       109.7           109.7           0.000    
    140      5     43     12       109.7           109.7           0.000    
    141      4     43     11       109.7           109.7           0.000    
    142      5     43     11       109.7           109.7           0.000    
    143      4     43     10       109.7           109.7           0.000    
    144      5     43     10       109.7           109.7           0.000    
    145      4     44     10       109.7           109.7           0.000    
    146      5     44     10       109.7           109.7           0.000    
    147      4     44      9       109.7           109.7           0.000    
    148      5     44      9       109.7           109.7           0.000    
    149      4     44      8       109.7           109.7           0.000    
    150      5     44      8       109.7           109.7           0.000    
    151      4     44      7       109.7           109.6           0.000    
    152      5     44      7       109.7           109.6           0.000    
    153      4     44      6       109.7           109.6           0.000    
    154      5     44      6       109.7           109.6           0.000    
    155      4     44      5       109.7           109.6           0.000    
    156      5     44      5       109.7           109.6           0.000    
    157      4     44      4       109.7           109.6           0.000    
    158      5     44      4       109.7           109.6           0.000    
    159      4     44      3       109.7           109.6           0.000    
    160      5     44      3       109.7           109.6           0.000    
    161      4     45      3       109.7           109.6           0.000    
    162      5     45      3       109.7           109.6           0.000    
    163      4     45      2       109.7           109.6           0.000    
    164      5     45      2       109.7           109.6           0.000    
    165      4     45      1       109.7           109.6           0.000    
    166      5     45      1       109.7           109.6           0.000    


    166 TIME-VARIANT SPECIFIED-HEAD CELLS

 SOLVING FOR HEAD 


     3 CALLS TO PCG ROUTINE FOR TIME STEP   1 IN STRESS PERIOD  132
    60 TOTAL ITERATIONS

 MAXIMUM HEAD CHANGE FOR EACH ITERATION (1 INDICATES THE FIRST INNER ITERATION):

    HEAD CHANGE    HEAD CHANGE    HEAD CHANGE    HEAD CHANGE    HEAD CHANGE 
   LAYER,ROW,COL  LAYER,ROW,COL  LAYER,ROW,COL  LAYER,ROW,COL  LAYER,ROW,COL
 ---------------------------------------------------------------------------
  1 -0.1773      0  0.1028      0 -0.6186E-01  0  0.4827E-01  0 -0.7230E-01
   (  5, 43,  5)  (  5, 35,  1)  (  5, 31,  2)  (  5, 41,  2)  (  5, 37,  1)
  0 -0.3571E-01  0 -0.4355E-01  0  0.4671E-01  0  0.2749E-01  0  0.2010E-01
   (  5, 39,  1)  (  5, 40,  1)  (  5, 37,  1)  (  5, 37,  6)  (  5, 40,  1)
  0  0.1557E-01  0 -0.1137E-01  0 -0.6418E-02  0  0.8088E-02  0 -0.8566E-02
   (  5, 35,  9)  (  5, 33,  9)  (  5, 31,  2)  (  5, 31,  9)  (  5, 36,  8)
  0 -0.4448E-02  0  0.5644E-02  0 -0.3830E-02  0 -0.2624E-02  0 -0.2560E-02
   (  5, 34,  1)  (  5, 36,  4)  (  5, 38,  8)  (  5, 15,  1)  (  5, 37,  1)
  0  0.1994E-02  0  0.1888E-02  0 -0.1045E-02  0 -0.1192E-02  0  0.1385E-02
   (  5, 39,  4)  (  5, 33,  9)  (  5, 30,  1)  (  5, 14,  1)  (  5, 13,  1)
  0  0.9939E-03  0 -0.7102E-03  0 -0.5055E-03  0  0.4063E-03  0 -0.3395E-03
   (  5, 37,  1)  (  5, 40,  2)  (  5, 35,  1)  (  5, 35,  3)  (  5, 41,  2)
  1  0.2013E-03  0 -0.1028E-03  0 -0.2346E-03  0  0.9579E-04  0  0.1420E-03
   (  5, 40,  1)  (  5, 30,  1)  (  5, 41,  2)  (  5, 34,  1)  (  5, 40,  2)
  0  0.8002E-04  0 -0.8610E-04  0  0.1171E-03  0 -0.6248E-04  0  0.5566E-04
   (  5, 24,  6)  (  5, 38,  1)  (  5, 38,  2)  (  5, 35,  1)  (  5, 37,  1)
  0 -0.5456E-04  0  0.2805E-04  0  0.3297E-04  0 -0.2968E-04  0  0.1932E-04
   (  5, 39,  2)  (  5, 31,  3)  (  5, 41,  2)  (  5, 34,  8)  (  5, 32,  7)
  0 -0.1717E-04  0 -0.1027E-04  0  0.1397E-04  0  0.8662E-05  0 -0.7965E-05
   (  5, 14,  1)  (  5, 36,  1)  (  5, 37,  4)  (  5, 39,  2)  (  5, 36,  9)
  0 -0.3509E-05  0  0.6507E-05  0  0.5663E-05  0 -0.5024E-05  0  0.2779E-05
   (  5, 32,  1)  (  5, 32,  5)  (  5, 36,  1)  (  5, 36,  6)  (  5, 40,  6)
  0  0.2909E-05  0 -0.1995E-05  0  0.1889E-05  0 -0.9890E-06  1  0.7217E-06
   (  5, 40,  1)  (  5, 42,  2)  (  5, 37,  1)  (  5, 37,  2)  (  5, 33,  3)

 MAXIMUM RESIDUAL FOR EACH ITERATION (1 INDICATES THE FIRST INNER ITERATION):

    RESIDUAL       RESIDUAL       RESIDUAL       RESIDUAL       RESIDUAL    
   LAYER,ROW,COL  LAYER,ROW,COL  LAYER,ROW,COL  LAYER,ROW,COL  LAYER,ROW,COL
 ---------------------------------------------------------------------------
  1  0.9927E-03  0  0.7680E-03  0  0.6546E-03  0  0.5346E-03  0  0.4442E-03
   (  4, 44,  2)  (  4, 44,  2)  (  4, 44,  2)  (  4, 44,  2)  (  4, 35, 35)
  0  0.3877E-03  0  0.3296E-03  0  0.2661E-03  0  0.2157E-03  0  0.1683E-03
   (  3, 40, 27)  (  3, 40, 27)  (  3, 40, 27)  (  3, 40, 27)  (  4, 35, 35)
  0  0.1322E-03  0  0.1013E-03  0  0.9561E-04  0  0.7135E-04  0 -0.5532E-04
   (  4, 35, 35)  (  4, 35, 35)  (  4, 35, 35)  (  4, 35, 35)  (  3, 35, 35)
  0 -0.5139E-04  0 -0.3979E-04  0 -0.3100E-04  0 -0.2556E-04  0 -0.2266E-04
   (  3, 35, 35)  (  3, 35, 35)  (  4, 34, 35)  (  4, 34, 35)  (  4, 34, 35)
  0 -0.2014E-04  0 -0.1746E-04  0 -0.1651E-04  0 -0.1370E-04  0 -0.1103E-04
   (  4, 34, 35)  (  4, 34, 35)  (  4, 34, 35)  (  4, 34, 35)  (  4, 34, 35)
  0 -0.9251E-05  0 -0.8047E-05  0 -0.6641E-05  0 -0.5819E-05  0 -0.4108E-05
   (  4, 34, 35)  (  4, 34, 35)  (  4, 34, 35)  (  4, 34, 35)  (  4, 34, 35)
  1 -0.3857E-05  0 -0.3800E-05  0 -0.3254E-05  0 -0.3100E-05  0 -0.2499E-05
   (  4, 34, 35)  (  4, 34, 35)  (  4, 34, 35)  (  4, 34, 35)  (  4, 34, 35)
  0 -0.2177E-05  0 -0.1775E-05  0 -0.1493E-05  0 -0.1072E-05  0 -0.8219E-06
   (  4, 34, 35)  (  4, 34, 35)  (  4, 34, 35)  (  4, 34, 35)  (  4, 34, 35)
  0 -0.6284E-06  0 -0.5734E-06  0  0.4433E-06  0  0.3621E-06  0  0.2871E-06
   (  4, 34, 35)  (  4, 34, 35)  (  4, 35, 35)  (  4, 35, 35)  (  4, 35, 35)
  0  0.2190E-06  0  0.2023E-06  0  0.1596E-06  0  0.1225E-06  0  0.9242E-07
   (  4, 35, 35)  (  4, 35, 35)  (  4, 35, 35)  (  4, 35, 35)  (  4, 35, 35)
  0  0.8744E-07  0  0.7198E-07  0  0.5947E-07  0  0.4345E-07  0  0.3156E-07
   (  4, 35, 35)  (  4, 35, 35)  (  4, 35, 35)  (  4, 35, 35)  (  4, 35, 35)
  0  0.2264E-07  0  0.1698E-07  0  0.1167E-07  0  0.1026E-07  1  0.1021E-07
   (  4, 35, 35)  (  4, 35, 35)  (  4, 35, 35)  (  4, 35, 35)  (  4, 35, 35)



 OUTPUT CONTROL FOR STRESS PERIOD  132   TIME STEP    1
    SAVE HEAD FOR ALL LAYERS
    SAVE DRAWDOWN FOR ALL LAYERS
    SAVE BUDGET
    PRINT BUDGET
 UBDSV1 SAVING "         STORAGE" ON UNIT   9 AT TIME STEP  1, STRESS PERIOD 132
 UBDSV2 SAVING "   CONSTANT HEAD" ON UNIT   9 AT TIME STEP  1, STRESS PERIOD 132
 UBDSV1 SAVING "FLOW RIGHT FACE " ON UNIT   9 AT TIME STEP  1, STRESS PERIOD 132
 UBDSV1 SAVING "FLOW FRONT FACE " ON UNIT   9 AT TIME STEP  1, STRESS PERIOD 132
 UBDSV1 SAVING "FLOW LOWER FACE " ON UNIT   9 AT TIME STEP  1, STRESS PERIOD 132
 UBDSV3 SAVING "        RECHARGE" ON UNIT   9 AT TIME STEP  1, STRESS PERIOD 132

 HEAD WILL BE SAVED ON UNIT   37 AT END OF TIME STEP    1, STRESS PERIOD  132

 DRAWDOWN WILL BE SAVED ON UNIT   38 AT END OF TIME STEP    1, STRESS PERIOD  132
1
  VOLUMETRIC BUDGET FOR ENTIRE MODEL AT END OF TIME STEP    1, STRESS PERIOD 132
  ------------------------------------------------------------------------------

     CUMULATIVE VOLUMES      L**3       RATES FOR THIS TIME STEP      L**3/T
     ------------------                 ------------------------

           IN:                                      IN:
           ---                                      ---
             STORAGE =       19962.3418               STORAGE =       5.2532E-04
       CONSTANT HEAD =       33529.5781         CONSTANT HEAD =       1.9611E-03
            RECHARGE =        1614.7819              RECHARGE =           0.0000

            TOTAL IN =       55106.7031              TOTAL IN =       2.4864E-03

          OUT:                                     OUT:
          ----                                     ----
             STORAGE =       16137.3564               STORAGE =       4.4540E-05
       CONSTANT HEAD =       38971.0898         CONSTANT HEAD =       2.4420E-03
            RECHARGE =           0.0000              RECHARGE =           0.0000

           TOTAL OUT =       55108.4453             TOTAL OUT =       2.4865E-03

            IN - OUT =          -1.7422              IN - OUT =      -1.4366E-07

 PERCENT DISCREPANCY =          -0.00     PERCENT DISCREPANCY =          -0.01






         TIME SUMMARY AT END OF TIME STEP    1 IN STRESS PERIOD  132
                    SECONDS     MINUTES      HOURS       DAYS        YEARS
                    -----------------------------------------------------------
   TIME STEP LENGTH  86400.      1440.0      24.000      1.0000     2.73785E-03
 STRESS PERIOD TIME  86400.      1440.0      24.000      1.0000     2.73785E-03
         TOTAL TIME 1.59840E+07 2.66400E+05  4440.0      185.00     0.50650    
1

 HEAD AND DRAWDOWN OBSERVATIONS
 OBSERVATION       OBSERVED           SIMULATED
   NAME              VALUE              VALUE             DIFFERENCE
 --------------------------------------------------------------------
 G10_1           110.67199707        110.63012695       4.18701171875E-02
 G10_2           110.57700348        110.56199646       1.50070190430E-02
 G10_3           110.51200104        110.49517822       1.68228149414E-02
 G10_4           110.44200134        110.42604065       1.59606933594E-02
 G10_5           109.87699890        109.86931610       7.68280029297E-03
 G10_6           109.79199982        109.77678680       1.52130126953E-02
 G10_7           109.68699646        109.67289734       1.40991210938E-02
 G10_8           109.64700317        109.60756683       3.94363403320E-02
 G10_9           109.46199799        109.42935944       3.26385498047E-02
 G10_10          109.43199921        109.39850616       3.34930419922E-02
 G10_11          109.42199707        109.38147736       4.05197143555E-02
 G10_12          109.39700317        109.36405945       3.29437255859E-02
 G10_13          109.39199829        109.35337067       3.86276245117E-02
 G10_14          109.31700134        109.28826904       2.87322998047E-02
 G10_15          109.34200287        109.30290985       3.90930175781E-02
 G10_16          109.33699799        109.30128479       3.57131958008E-02
 G10_17          109.35199738        109.32016754       3.18298339844E-02
 G10_18          109.41699982        109.37245178       4.45480346680E-02
 G10_19          109.41200256        109.37839508       3.36074829102E-02
 G10_20          109.41200256        109.37845612       3.35464477539E-02
 G10_21          109.40200043        109.37244415       2.95562744141E-02
 G10_22          109.40200043        109.36665344       3.53469848633E-02
 G10_23          109.30699921        109.27954102       2.74581909180E-02
 G10_24          109.29699707        109.27051544       2.64816284180E-02
 G10_25          109.40200043        109.37093353       3.10668945312E-02
 G10_26          109.58699799        109.53567505       5.13229370117E-02
 G10_27          109.72200012        109.67769623       4.43038940430E-02
 G10_28          109.68199921        109.64978790       3.22113037109E-02
 G10_29          109.60199738        109.58084106       2.11563110352E-02
 G10_30          109.56199646        109.53414154       2.78549194336E-02
 G10_31          109.50199890        109.47718048       2.48184204102E-02
 G10_32          109.45200348        109.42444611       2.75573730469E-02
 G10_33          109.37200165        109.34474945       2.72521972656E-02
 G10_34          109.35700226        109.33319855       2.38037109375E-02
 G10_35          109.60199738        109.45816803       0.14382934570    
 G10_36          109.58200073        109.53898621       4.30145263672E-02
 G10_37          109.58200073        109.54534149       3.66592407227E-02
 G10_38          109.55699921        109.53139496       2.56042480469E-02
 G10_39          109.48699951        109.46535492       2.16445922852E-02
 G10_40          109.47699738        109.44760132       2.93960571289E-02
 G10_41          109.51200104        109.47879791       3.32031250000E-02
 G10_42          109.55699921        109.52305603       3.39431762695E-02
 G10_43          109.49700165        109.48129272       1.57089233398E-02
 G10_44          109.53199768        109.50288391       2.91137695312E-02
 G10_45          109.55699921        109.52707672       2.99224853516E-02
 G10_46          109.55200195        109.53727722       1.47247314453E-02
 G10_47          109.62699890        109.59958649       2.74124145508E-02
 G10_48          109.67700195        109.64126587       3.57360839844E-02
 G10_49          109.60199738        109.58922577       1.27716064453E-02
 G10_50          109.52700043        109.51119995       1.58004760742E-02
 G10_51          109.48699951        109.46401215       2.29873657227E-02
 G10_52          109.43699646        109.41263580       2.43606567383E-02
 G10_53          109.41699982        109.39505005       2.19497680664E-02
 G10_54          109.45200348        109.41850281       3.35006713867E-02
 G10_55          109.42199707        109.40090942       2.10876464844E-02
 G10_56          109.42199707        109.39151001       3.04870605469E-02
 G10_57          109.44699860        109.42044067       2.65579223633E-02
 G10_58          109.36199951        109.41794586      -5.59463500977E-02
 G10_59          109.46199799        109.43244171       2.95562744141E-02
 G10_60          109.47699738        109.44616699       3.08303833008E-02
 G10_61          109.45700073        109.43349457       2.35061645508E-02
 G10_62          109.44200134        109.42002106       2.19802856445E-02
 G10_63          109.39199829        109.36377716       2.82211303711E-02
 G10_64          109.41200256        109.37628937       3.57131958008E-02
 G10_65          109.41699982        109.38624573       3.07540893555E-02
 G10_66          109.43699646        109.41001129       2.69851684570E-02
 G10_67          109.46199799        109.40665436       5.53436279297E-02
 G10_68          109.51699829        109.48224640       3.47518920898E-02
 G10_69          109.52700043        109.50284576       2.41546630859E-02
 G10_70          109.56700134        109.53908539       2.79159545898E-02
 G10_71          109.67199707        109.63584137       3.61557006836E-02
 G10_72          109.79699707        109.75850677       3.84902954102E-02
 G10_73          109.83200073        109.79560089       3.63998413086E-02
 G10_74          109.83699799        109.81538391       2.16140747070E-02
 G10_75          109.83699799        109.81662750       2.03704833984E-02
 G10_76          109.85199738        109.82856750       2.34298706055E-02
 G10_77          109.84700012        109.81974792       2.72521972656E-02
 G10_78          110.26699829        110.21639252       5.06057739258E-02
 G10_79          110.31199646        110.29937744       1.26190185547E-02
 G10_80          110.43699646        110.42281342       1.41830444336E-02
 G10_81          110.41200256        110.42263794      -1.06353759766E-02
 G10_82          110.39199829        110.38500214       6.99615478516E-03
 G10_83          110.42700195        110.41046906       1.65328979492E-02
 G10_84          110.45700073        110.44229889       1.47018432617E-02
 G10_85          110.44699860        110.43267059       1.43280029297E-02
 G10_86          110.43699646        110.41663361       2.03628540039E-02
 G10_87          110.26699829        110.23702240       2.99758911133E-02
 G10_88          110.25199890        110.22460175       2.73971557617E-02
 G10_89          110.24700165        110.21937561       2.76260375977E-02
 G10_90          110.23699951        110.21086884       2.61306762695E-02
 G10_91          110.25700378        110.25311279       3.89099121094E-03
 G10_92          110.25700378        110.22144318       3.55606079102E-02
 G10_93          110.03700256        110.04200745      -5.00488281250E-03
 G10_94          109.92199707        109.92370605      -1.70898437500E-03
 G10_95          109.92199707        109.88799286       3.40042114258E-02
 G10_96          109.80200195        109.81723785      -1.52359008789E-02
 G10_97          109.87200165        109.83821869       3.37829589844E-02
 G10_98          109.94200134        109.90570068       3.63006591797E-02
 G10_99          109.96700287        109.94053650       2.64663696289E-02
 G10_100         110.01699829        109.98469543       3.23028564453E-02
 G10_101         110.18199921        110.22306824      -4.10690307617E-02
 G10_102         110.17700195        110.17247772       4.52423095703E-03
 G10_103         110.27700043        110.24639893       3.06015014648E-02
 G10_104         110.37699890        110.35681152       2.01873779297E-02
 G10_105         110.72699738        110.71874237       8.25500488281E-03
 G10_106         110.75199890        110.72449493       2.75039672852E-02
 G10_107         110.72699738        110.71673584       1.02615356445E-02
 G10_108         110.65699768        110.64245605       1.45416259766E-02
 G10_109         110.49199677        110.47173309       2.02636718750E-02
 G10_110         110.29699707        110.28030396       1.66931152344E-02
 G10_111         110.29699707        110.24330902       5.36880493164E-02
 G10_112         110.17700195        110.15854645       1.84555053711E-02
 G10_113         110.12699890        110.09516144       3.18374633789E-02
 G10_114         110.06199646        110.03997803       2.20184326172E-02
 G10_115         109.99700165        109.97628021       2.07214355469E-02
 G10_116         110.00199890        109.97357941       2.84194946289E-02
 G10_117         110.03199768        110.00095367       3.10440063477E-02
 G10_118         110.03700256        110.01483154       2.21710205078E-02
 G10_119         110.01200104        109.99790955       1.40914916992E-02
 G10_120         110.00700378        109.96383667       4.31671142578E-02
 G10_121         109.97699738        109.94612885       3.08685302734E-02
 G10_122         110.09700012        110.06216431       3.48358154297E-02
 G10_123         110.14700317        110.12359619       2.34069824219E-02
 G10_124         110.05699921        110.04497528       1.20239257812E-02
 G10_125         110.01699829        109.99682617       2.01721191406E-02
 G10_126         109.99700165        109.97068787       2.63137817383E-02
 G10_127         109.98200226        109.96318817       1.88140869141E-02
 G10_128         109.95200348        109.93337250       1.86309814453E-02
 G10_129         109.81700134        109.79618835       2.08129882812E-02
 G10_130         109.80699921        109.78439331       2.26058959961E-02
 G10_131         109.86699677        109.82534027       4.16564941406E-02
 G10_132         109.85700226        109.82851410       2.84881591797E-02
 G11_1           110.65899658        110.57501221       8.39843750000E-02
 G11_2           110.56400299        110.51827240       4.57305908203E-02
 G11_3           110.48400116        110.44658661       3.74145507812E-02
 G11_4           110.42900085        110.37858582       5.04150390625E-02
 G11_5           109.83399963        109.78053284       5.34667968750E-02
 G11_6           109.75399780        109.67228699       8.17108154297E-02
 G11_7           109.64900208        109.56801605       8.09860229492E-02
 G11_8           109.59899902        109.49562073       0.10337829590    
 G11_9           109.42900085        109.32422638       0.10477447510    
 G11_10          109.39900208        109.30150604       9.74960327148E-02
 G11_11          109.38899994        109.28517151       0.10382843018    
 G11_12          109.35900116        109.27289581       8.61053466797E-02
 G11_13          109.36399841        109.26296234       0.10103607178    
 G11_14          109.28900146        109.19288635       9.61151123047E-02
 G11_15          109.31900024        109.22152710       9.74731445312E-02
 G11_16          109.30899811        109.21987152       8.91265869141E-02
 G11_17          109.33899689        109.25413513       8.48617553711E-02
 G11_18          109.40399933        109.30210114       0.10189819336    
 G11_19          109.39399719        109.30958557       8.44116210938E-02
 G11_20          109.39399719        109.31096649       8.30307006836E-02
 G11_21          109.38899994        109.30062103       8.83789062500E-02
 G11_22          109.37899780        109.29355621       8.54415893555E-02
 G11_23          109.28399658        109.19585419       8.81423950195E-02
 G11_24          109.27400208        109.20479584       6.92062377930E-02
 G11_25          109.38899994        109.33504486       5.39550781250E-02
 G11_26          109.60399628        109.51566315       8.83331298828E-02
 G11_27          109.73899841        109.66226959       7.67288208008E-02
 G11_28          109.64900208        109.57633972       7.26623535156E-02
 G11_29          109.56900024        109.50582123       6.31790161133E-02
 G11_30          109.53399658        109.45272827       8.12683105469E-02
 G11_31          109.47399902        109.38827515       8.57238769531E-02
 G11_32          109.42400360        109.34113312       8.28704833984E-02
 G11_33          109.34400177        109.26158142       8.24203491211E-02
 G11_34          109.33399963        109.26176453       7.22351074219E-02
 G11_35          109.52400208        109.42328644       0.10071563721    
 G11_36          109.56900024        109.48880768       8.01925659180E-02
 G11_37          109.56900024        109.49320984       7.57904052734E-02
 G11_38          109.54399872        109.47436523       6.96334838867E-02
 G11_39          109.46399689        109.39936066       6.46362304688E-02
 G11_40          109.45400238        109.38190460       7.20977783203E-02
 G11_41          109.49900055        109.43162537       6.73751831055E-02
 G11_42          109.54399872        109.46842957       7.55691528320E-02
 G11_43          109.46900177        109.42504883       4.39529418945E-02
 G11_44          109.51899719        109.45019531       6.88018798828E-02
 G11_45          109.55400085        109.45994568       9.40551757812E-02
 G11_46          109.54399872        109.49955750       4.44412231445E-02
 G11_47          109.62400055        109.57218170       5.18188476562E-02
 G11_48          109.66899872        109.60104370       6.79550170898E-02
 G11_49          109.57900238        109.52564240       5.33599853516E-02
 G11_50          109.49900055        109.44285583       5.61447143555E-02
 G11_51          109.46399689        109.39118958       7.28073120117E-02
 G11_52          109.40899658        109.33524323       7.37533569336E-02
 G11_53          109.39900208        109.33468628       6.43157958984E-02
 G11_54          109.43399811        109.34889984       8.50982666016E-02
 G11_55          109.40399933        109.34224701       6.17523193359E-02
 G11_56          109.39900208        109.33599091       6.30111694336E-02
 G11_57          109.42900085        109.36632538       6.26754760742E-02
 G11_58          109.43900299        109.36781311       7.11898803711E-02
 G11_59          109.44899750        109.37683868       7.21588134766E-02
 G11_60          109.45899963        109.38812256       7.08770751953E-02
 G11_61          109.44400024        109.38100433       6.29959106445E-02
 G11_62          109.43399811        109.35980988       7.41882324219E-02
 G11_63          109.36900330        109.30149841       6.75048828125E-02
 G11_64          109.38899994        109.31851196       7.04879760742E-02
 G11_65          109.40399933        109.32733917       7.66601562500E-02
 G11_66          109.42900085        109.36354065       6.54602050781E-02
 G11_67          109.47899628        109.38265228       9.63439941406E-02
 G11_68          109.50399780        109.43534088       6.86569213867E-02
 G11_69          109.50900269        109.45461273       5.43899536133E-02
 G11_70          109.56400299        109.51254272       5.14602661133E-02
 G11_71          109.67900085        109.62135315       5.76477050781E-02
 G11_72          109.81900024        109.76628113       5.27191162109E-02
 G11_73          109.83399963        109.79037476       4.36248779297E-02
 G11_74          109.83899689        109.79931641       3.96804809570E-02
 G11_75          109.82900238        109.79274750       3.62548828125E-02
 G11_76          109.84400177        109.80221558       4.17861938477E-02
 G11_77          109.83399963        109.79907227       3.49273681641E-02
 G11_78          110.28399658        110.23456573       4.94308471680E-02
 G11_79          110.33899689        110.35206604      -1.30691528320E-02
 G11_80          110.46399689        110.47319794      -9.20104980469E-03
 G11_81          110.40899658        110.44742584      -3.84292602539E-02
 G11_82          110.39399719        110.39289093       1.10626220703E-03
 G11_83          110.42400360        110.41943359       4.57000732422E-03
 G11_84          110.45899963        110.44718170       1.18179321289E-02
 G11_85          110.44599915        110.43612671       9.87243652344E-03
 G11_86          110.43399811        110.41605377       1.79443359375E-02
 G11_87          110.22899628        110.17555237       5.34439086914E-02
 G11_88          110.25399780        110.18382263       7.01751708984E-02
 G11_89          110.23899841        110.18961334       4.93850708008E-02
 G11_90          110.22399902        110.18282318       4.11758422852E-02
 G11_91          110.24900055        110.24480438       4.19616699219E-03
 G11_92          110.22899628        110.14905548       7.99407958984E-02
 G11_93          109.98899841        109.96623993       2.27584838867E-02
 G11_94          109.88899994        109.86800385       2.09960937500E-02
 G11_95          109.88899994        109.81719971       7.18002319336E-02
 G11_96          109.82399750        109.76925659       5.47409057617E-02
 G11_97          109.85900116        109.79508209       6.39190673828E-02
 G11_98          109.93900299        109.87187958       6.71234130859E-02
 G11_99          109.94899750        109.91576385       3.32336425781E-02
 G11_100         110.01899719        109.96065521       5.83419799805E-02
 G11_101         110.17900085        110.17208862       6.91223144531E-03
 G11_102         110.16899872        110.16477966       4.21905517578E-03
 G11_103         110.28900146        110.24252319       4.64782714844E-02
 G11_104         110.40899658        110.40291595       6.08062744141E-03
 G11_105         110.75900269        110.74999237       9.01031494141E-03
 G11_106         110.74900055        110.74536133       3.63922119141E-03
 G11_107         110.73899841        110.72812653       1.08718872070E-02
 G11_108         110.63899994        110.62715912       1.18408203125E-02
 G11_109         110.46399689        110.43270874       3.12881469727E-02
 G11_110         110.25900269        110.19679260       6.22100830078E-02
 G11_111         110.18900299        110.14501190       4.39910888672E-02
 G11_112         110.14900208        110.08573914       6.32629394531E-02
 G11_113         110.09400177        110.03067017       6.33316040039E-02
 G11_114         110.03399658        109.97747803       5.65185546875E-02
 G11_115         109.97899628        109.92742920       5.15670776367E-02
 G11_116         109.98899841        109.92398071       6.50177001953E-02
 G11_117         107.01399994        109.95541382       -2.9414138794    
 G11_118         110.02899933        109.97278595       5.62133789062E-02
 G11_119         109.98899841        109.96203613       2.69622802734E-02
 G11_120         109.93900299        109.91210938       2.68936157227E-02
 G11_121         109.96900177        109.89705658       7.19451904297E-02
 G11_122         110.09899902        110.03995514       5.90438842773E-02
 G11_123         110.14900208        110.11201477       3.69873046875E-02
 G11_124         110.03900146        109.98791504       5.10864257812E-02
 G11_125         109.98899841        109.94007111       4.89273071289E-02
 G11_126         109.97899628        109.91814423       6.08520507812E-02
 G11_127         109.95899963        109.91146088       4.75387573242E-02
 G11_128         109.85900116        109.88496399      -2.59628295898E-02
 G11_129         109.73899841        109.73786163       1.13677978516E-03
 G11_130         109.78900146        109.73366547       5.53359985352E-02
 G11_131         109.85399628        109.77400208       7.99942016602E-02
 G11_132         109.83899689        109.77217102       6.68258666992E-02
 G13_1           110.64800262        110.56166840       8.63342285156E-02
 G13_2           110.55300140        110.50704193       4.59594726562E-02
 G13_3           110.47799683        110.43492889       4.30679321289E-02
 G13_4           110.42299652        110.36688995       5.61065673828E-02
 G13_5           109.84300232        109.76387024       7.91320800781E-02
 G13_6           109.76300049        109.65215302       0.11084747314    
 G13_7           109.65299988        109.54740906       0.10559082031    
 G13_8           109.61299896        109.47330475       0.13969421387    
 G13_9           109.43299866        109.30236816       0.13063049316    
 G13_10          109.40799713        109.28067780       0.12731933594    
 G13_11          109.39299774        109.26472473       0.12827301025    
 G13_12          109.37300110        109.25320435       0.11979675293    
 G13_13          109.36299896        109.24351501       0.11948394775    
 G13_14          109.29299927        109.17311096       0.11988830566    
 G13_15          109.31800079        109.20243835       0.11556243896    
 G13_16          109.31300354        109.20191956       0.11108398438    
 G13_17          109.33799744        109.23798370       0.10001373291    
 G13_18          109.40799713        109.28619385       0.12180328369    
 G13_19          109.38800049        109.29381561       9.41848754883E-02
 G13_20          109.39800262        109.29532623       0.10267639160    
 G13_21          109.38300323        109.28433990       9.86633300781E-02
 G13_22          109.38300323        109.27695465       0.10604858398    
 G13_23          109.28800201        109.17804718       0.10995483398    
 G13_24          109.27300262        109.18866730       8.43353271484E-02
 G13_25          109.38300323        109.32447052       5.85327148438E-02
 G13_26          109.59300232        109.52376556       6.92367553711E-02
 G13_27          109.72799683        109.67005920       5.79376220703E-02
 G13_28          109.65299988        109.55340576       9.95941162109E-02
 G13_29          109.57800293        109.48200226       9.60006713867E-02
 G13_30          109.53800201        109.42961884       0.10838317871    
 G13_31          109.47799683        109.36464691       0.11334991455    
 G13_32          109.42299652        109.32074738       0.10224914551    
 G13_33          109.35299683        109.24314880       0.10984802246    
 G13_34          109.33300018        109.24501038       8.79898071289E-02
 G13_35          109.51799774        109.41982269       9.81750488281E-02
 G13_36          109.56800079        109.48178864       8.62121582031E-02
 G13_37          109.56800079        109.48072052       8.72802734375E-02
 G13_38          109.53800201        109.45873260       7.92694091797E-02
 G13_39          109.46800232        109.38076782       8.72344970703E-02
 G13_40          109.46299744        109.36522675       9.77706909180E-02
 G13_41          109.49800110        109.42348480       7.45162963867E-02
 G13_42          109.54299927        109.45846558       8.45336914062E-02
 G13_43          109.47299957        109.40763855       6.53610229492E-02
 G13_44          109.51799774        109.43927765       7.87200927734E-02
 G13_45          109.55300140        109.44430542       0.10869598389    
 G13_46          109.54299927        109.49342346       4.95758056641E-02
 G13_47          109.62300110        109.57083130       5.21697998047E-02
 G13_48          109.66799927        109.59300232       7.49969482422E-02
 G13_49          109.58300018        109.50330353       7.96966552734E-02
 G13_50          109.50299835        109.41940308       8.35952758789E-02
 G13_51          109.46299744        109.37054443       9.24530029297E-02
 G13_52          109.41300201        109.31590271       9.70993041992E-02
 G13_53          109.40299988        109.31938934       8.36105346680E-02
 G13_54          109.43800354        109.33322906       0.10477447510    
 G13_55          109.40799713        109.32794189       8.00552368164E-02
 G13_56          109.39800262        109.32225037       7.57522583008E-02
 G13_57          109.43299866        109.35368347       7.93151855469E-02
 G13_58          109.43299866        109.35541534       7.75833129883E-02
 G13_59          109.44799805        109.36377716       8.42208862305E-02
 G13_60          109.46299744        109.37486267       8.81347656250E-02
 G13_61          109.44300079        109.36766815       7.53326416016E-02
 G13_62          109.51300049        109.34475708       0.16824340820    
 G13_63          109.37300110        109.28662872       8.63723754883E-02
 G13_64          109.38300323        109.30452728       7.84759521484E-02
 G13_65          109.39800262        109.31344604       8.45565795898E-02
 G13_66          109.43299866        109.35224152       8.07571411133E-02
 G13_67          109.45300293        109.37609100       7.69119262695E-02
 G13_68          109.50299835        109.42782593       7.51724243164E-02
 G13_69          109.51300049        109.44261169       7.03887939453E-02
 G13_70          109.55300140        109.50996399       4.30374145508E-02
 G13_71          109.67299652        109.62574768       4.72488403320E-02
 G13_72          109.80300140        109.77840424       2.45971679688E-02
 G13_73          109.84300232        109.78839111       5.46112060547E-02
 G13_74          109.84300232        109.79274750       5.02548217773E-02
 G13_75          109.81800079        109.78405762       3.39431762695E-02
 G13_76          109.83799744        109.79467773       4.33197021484E-02
 G13_77          109.83300018        109.79154968       4.14505004883E-02
 G13_78          110.26300049        110.25157166       1.14288330078E-02
 G13_79          110.31300354        110.37036896      -5.73654174805E-02
 G13_80          110.44799805        110.49061584      -4.26177978516E-02
 G13_81          110.40299988        110.44579315      -4.27932739258E-02
 G13_82          110.38800049        110.38940430      -1.40380859375E-03
 G13_83          110.42299652        110.41974640       3.25012207031E-03
 G13_84          110.46800232        110.44705200       2.09503173828E-02
 G13_85          110.45300293        110.43206024       2.09426879883E-02
 G13_86          110.43800354        110.41014099       2.78625488281E-02
 G13_87          110.23300171        110.15148926       8.15124511719E-02
 G13_88          110.24299622        110.17363739       6.93588256836E-02
 G13_89          110.22799683        110.18157196       4.64248657227E-02
 G13_90          110.22299957        110.17370605       4.92935180664E-02
 G13_91          110.26300049        110.24169159       2.13088989258E-02
 G13_92          110.22299957        110.12255859       0.10044097900    
 G13_93          110.00299835        109.93113708       7.18612670898E-02
 G13_94          109.89299774        109.84471893       4.82788085938E-02
 G13_95          109.89299774        109.79563904       9.73587036133E-02
 G13_96          109.82299805        109.75635529       6.66427612305E-02
 G13_97          109.85299683        109.78636932       6.66275024414E-02
 G13_98          109.93299866        109.86985016       6.31484985352E-02
 G13_99          109.95300293        109.91242981       4.05731201172E-02
 G13_100         110.00800323        109.95727539       5.07278442383E-02
 G13_101         110.17299652        110.16487122       8.12530517578E-03
 G13_102         110.16300201        110.16007996       2.92205810547E-03
 G13_103         110.27799988        110.24577332       3.22265625000E-02
 G13_104         110.39299774        110.42391968      -3.09219360352E-02
 G13_105         110.75299835        110.76251221      -9.51385498047E-03
 G13_106         110.73300171        110.74534607      -1.23443603516E-02
 G13_107         110.71299744        110.72449493      -1.14974975586E-02
 G13_108         110.64299774        110.61037445       3.26232910156E-02
 G13_109         110.46299744        110.41209412       5.09033203125E-02
 G13_110         110.26300049        110.16573334       9.72671508789E-02
 G13_111         110.14299774        110.11828613       2.47116088867E-02
 G13_112         110.15299988        110.06385040       8.91494750977E-02
 G13_113         110.09799957        110.01042938       8.75701904297E-02
 G13_114         110.03299713        109.95762634       7.53707885742E-02
 G13_115         109.97799683        109.91430664       6.36901855469E-02
 G13_116         109.98300171        109.91127014       7.17315673828E-02
 G13_117         110.01300049        109.94683075       6.61697387695E-02
 G13_118         110.02300262        109.96363831       5.93643188477E-02
 G13_119         109.99299622        109.95126343       4.17327880859E-02
 G13_120         109.92299652        109.89751434       2.54821777344E-02
 G13_121         109.96299744        109.88330841       7.96890258789E-02
 G13_122         110.08300018        110.04119873       4.18014526367E-02
 G13_123         110.14299774        110.11385345       2.91442871094E-02
 G13_124         110.03299713        109.96772766       6.52694702148E-02
 G13_125         109.99299622        109.92155457       7.14416503906E-02
 G13_126         109.97799683        109.90303802       7.49588012695E-02
 G13_127         109.96299744        109.89802551       6.49719238281E-02
 G13_128         109.91300201        109.87032318       4.26788330078E-02
 G13_129         109.76300049        109.71863556       4.43649291992E-02
 G13_130         109.79299927        109.72060394       7.23953247070E-02
 G13_131         109.85299683        109.76502228       8.79745483398E-02
 G13_132         109.83799744        109.75836945       7.96279907227E-02
 G12_1           110.65699768        110.56636810       9.06295776367E-02
 G12_2           110.56199646        110.51126862       5.07278442383E-02
 G12_3           110.48699951        110.43921661       4.77828979492E-02
 G12_4           110.42700195        110.37113953       5.58624267578E-02
 G12_5           109.84700012        109.76941681       7.75833129883E-02
 G12_6           109.76200104        109.65860748       0.10339355469    
 G12_7           109.65200043        109.55406952       9.79309082031E-02
 G12_8           109.60199738        109.48045349       0.12154388428    
 G12_9           109.42700195        109.30952454       0.11747741699    
 G12_10          109.40699768        109.28735352       0.11964416504    
 G12_11          109.39199829        109.27125549       0.12074279785    
 G12_12          109.37200165        109.25952148       0.11248016357    
 G12_13          109.36199951        109.24974060       0.11225891113    
 G12_14          109.29199982        109.17938232       0.11261749268    
 G12_15          109.31700134        109.20854950       0.10845184326    
 G12_16          109.31199646        109.20771027       0.10428619385    
 G12_17          109.33699799        109.24315643       9.38415527344E-02
 G12_18          109.40699768        109.29105377       0.11594390869    
 G12_19          109.39700317        109.29906464       9.79385375977E-02
 G12_20          109.39700317        109.30046844       9.65347290039E-02
 G12_21          109.38200378        109.28977203       9.22317504883E-02
 G12_22          109.38200378        109.28244781       9.95559692383E-02
 G12_23          109.28700256        109.18378448       0.10321807861    
 G12_24          109.27700043        109.19396973       8.30307006836E-02
 G12_25          109.38200378        109.32712555       5.48782348633E-02
 G12_26          109.59700012        109.51509857       8.19015502930E-02
 G12_27          109.73699951        109.66280365       7.41958618164E-02
 G12_28          109.65200043        109.56356812       8.84323120117E-02
 G12_29          109.57700348        109.49239349       8.46099853516E-02
 G12_30          109.53199768        109.43901062       9.29870605469E-02
 G12_31          109.47699738        109.37415314       0.10284423828    
 G12_32          109.42700195        109.32817841       9.88235473633E-02
 G12_33          109.35199738        109.24924469       0.10275268555    
 G12_34          109.33200073        109.25048828       8.15124511719E-02
 G12_35          109.51699829        109.41757965       9.94186401367E-02
 G12_36          109.57199860        109.48239136       8.96072387695E-02
 G12_37          109.57199860        109.48508453       8.69140625000E-02
 G12_38          109.53700256        109.46482086       7.21817016602E-02
 G12_39          109.46700287        109.38825989       7.87429809570E-02
 G12_40          109.45700073        109.37122345       8.57772827148E-02
 G12_41          109.49700165        109.42440796       7.25936889648E-02
 G12_42          109.54199982        109.46068573       8.13140869141E-02
 G12_43          109.47200012        109.41522980       5.67703247070E-02
 G12_44          109.52200317        109.44195557       8.00476074219E-02
 G12_45          109.55699921        109.44964600       0.10735321045    
 G12_46          109.54699707        109.49378967       5.32073974609E-02
 G12_47          109.62200165        109.56877899       5.32226562500E-02
 G12_48          109.66699982        109.59516907       7.18307495117E-02
 G12_49          109.58200073        109.51403809       6.79626464844E-02
 G12_50          109.50199890        109.43009949       7.18994140625E-02
 G12_51          109.46700287        109.37884521       8.81576538086E-02
 G12_52          109.41200256        109.32321167       8.87908935547E-02
 G12_53          109.40200043        109.32449341       7.75070190430E-02
 G12_54          109.43699646        109.33821106       9.87854003906E-02
 G12_55          109.40699768        109.33280182       7.41958618164E-02
 G12_56          109.40699768        109.32695007       8.00476074219E-02
 G12_57          109.43199921        109.35746002       7.45391845703E-02
 G12_58          109.43699646        109.35958862       7.74078369141E-02
 G12_59          109.44699860        109.36799622       7.90023803711E-02
 G12_60          109.46199799        109.37902832       8.29696655273E-02
 G12_61          109.43699646        109.37236023       6.46362304688E-02
 G12_62          109.42700195        109.35028076       7.67211914062E-02
 G12_63          109.36699677        109.29169464       7.53021240234E-02
 G12_64          109.38700104        109.30904388       7.79571533203E-02
 G12_65          109.39700317        109.31798553       7.90176391602E-02
 G12_66          109.42700195        109.35552979       7.14721679688E-02
 G12_67          109.48200226        109.37779999       0.10420227051    
 G12_68          109.50199890        109.42882538       7.31735229492E-02
 G12_69          109.51200104        109.44673157       6.52694702148E-02
 G12_70          109.56199646        109.50865173       5.33447265625E-02
 G12_71          109.67700195        109.62055969       5.64422607422E-02
 G12_72          109.79699707        109.76950073       2.74963378906E-02
 G12_73          109.81700134        109.78918457       2.78167724609E-02
 G12_74          109.82199860        109.79531860       2.66799926758E-02
 G12_75          109.82700348        109.78761292       3.93905639648E-02
 G12_76          109.84200287        109.79714966       4.48532104492E-02
 G12_77          109.83200073        109.79444885       3.75518798828E-02
 G12_78          110.26200104        110.24031830       2.16827392578E-02
 G12_79          110.33200073        110.36074829      -2.87475585938E-02
 G12_80          110.46199799        110.48148346      -1.94854736328E-02
 G12_81          110.40699768        110.44862366      -4.16259765625E-02
 G12_82          110.39700317        110.39143372       5.56945800781E-03
 G12_83          110.43199921        110.41912842       1.28707885742E-02
 G12_84          110.45700073        110.44667816       1.03225708008E-02
 G12_85          110.44400024        110.43441010       9.59014892578E-03
 G12_86          110.43199921        110.41335297       1.86462402344E-02
 G12_87          110.24199677        110.16307068       7.89260864258E-02
 G12_88          110.25199890        110.17640686       7.55920410156E-02
 G12_89          110.23699951        110.18412781       5.28717041016E-02
 G12_90          110.22699738        110.17727661       4.97207641602E-02
 G12_91          110.23699951        110.24240875      -5.40924072266E-03
 G12_92          110.23200226        110.13590240       9.60998535156E-02
 G12_93          109.99199677        109.94950104       4.24957275391E-02
 G12_94          109.90200043        109.85541534       4.65850830078E-02
 G12_95          109.89700317        109.80454254       9.24606323242E-02
 G12_96          109.82199860        109.76097870       6.10198974609E-02
 G12_97          109.85700226        109.78837585       6.86264038086E-02
 G12_98          109.93699646        109.86785126       6.91452026367E-02
 G12_99          109.95700073        109.91230774       4.46929931641E-02
 G12_100         110.01200104        109.95719147       5.48095703125E-02
 G12_101         110.17700195        110.16572571       1.12762451172E-02
 G12_102         110.16699982        110.16194153       5.05828857422E-03
 G12_103         110.28450012        110.24217224       4.23278808594E-02
 G12_104         110.40200043        110.41126251      -9.26208496094E-03
 G12_105         110.76699829        110.75557709       1.14212036133E-02
 G12_106         110.74199677        110.74656677      -4.57000732422E-03
 G12_107         110.70200348        110.72705078      -2.50473022461E-02
 G12_108         110.65699768        110.62040710       3.65905761719E-02
 G12_109         110.47200012        110.42259979       4.94003295898E-02
 G12_110         110.25700378        110.18057251       7.64312744141E-02
 G12_111         110.16699982        110.12884521       3.81546020508E-02
 G12_112         110.16699982        110.07283783       9.41619873047E-02
 G12_113         110.10199738        110.01895905       8.30383300781E-02
 G12_114         110.03700256        109.96607971       7.09228515625E-02
 G12_115         109.98200226        109.91906738       6.29348754883E-02
 G12_116         109.98699951        109.91575623       7.12432861328E-02
 G12_117         110.02200317        109.94863129       7.33718872070E-02
 G12_118         110.02700043        109.96627808       6.07223510742E-02
 G12_119         109.99700165        109.95547485       4.15267944336E-02
 G12_120         109.96700287        109.90319824       6.38046264648E-02
 G12_121         109.95700073        109.88851166       6.84890747070E-02
 G12_122         110.09700012        110.03781128       5.91888427734E-02
 G12_123         110.14700317        110.11106110       3.59420776367E-02
 G12_124         110.03700256        109.97704315       5.99594116211E-02
 G12_125         109.99700165        109.92944336       6.75582885742E-02
 G12_126         109.97699738        109.90879822       6.81991577148E-02
 G12_127         109.97200012        109.90278625       6.92138671875E-02
 G12_128         109.93699646        109.87626648       6.07299804688E-02
 G12_129         109.68699646        109.72699738      -4.00009155273E-02
 G12_130         109.78700256        109.72496796       6.20346069336E-02
 G12_131         109.85700226        109.76659393       9.04083251953E-02
 G12_132         109.84200287        109.76330566       7.86972045898E-02
 G21_1           110.63400269        110.52607727       0.10792541504    
 G21_2           110.54399872        110.46674347       7.72552490234E-02
 G21_3           110.47399902        110.38839722       8.56018066406E-02
 G21_4           110.40899658        110.32139587       8.76007080078E-02
 G21_5           109.81900024        109.67600250       0.14299774170    
 G21_6           109.74900055        109.56620789       0.18279266357    
 G21_7           109.63400269        109.46257782       0.17142486572    
 G21_8           109.58399963        109.39093781       0.19306182861    
 G21_9           109.41899872        109.22871399       0.19028472900    
 G21_10          109.39399719        109.21765137       0.17634582520    
 G21_11          109.38400269        109.20388031       0.18012237549    
 G21_12          109.36399841        109.19604492       0.16795349121    
 G21_13          109.35399628        109.18736267       0.16663360596    
 G21_14          109.27899933        109.11112976       0.16786956787    
 G21_15          109.30899811        109.15859222       0.15040588379    
 G21_16          109.29900360        109.15293884       0.14606475830    
 G21_17          109.32900238        109.20404053       0.12496185303    
 G21_18          109.39900208        109.25316620       0.14583587646    
 G21_19          109.38400269        109.25057220       0.13343048096    
 G21_20          109.38899994        109.25412750       0.13487243652    
 G21_21          109.36900330        109.23854828       0.13045501709    
 G21_22          109.37400055        109.23097992       0.14302062988    
 G21_23          109.27400208        109.12225342       0.15174865723    
 G21_24          109.26399994        109.14958191       0.11441802979    
 G21_25          109.36900330        109.32688904       4.21142578125E-02
 G21_26          109.59400177        109.55387115       4.01306152344E-02
 G21_27          109.72399902        109.69347382       3.05252075195E-02
 G21_28          109.63400269        109.49262238       0.14138031006    
 G21_29          109.56400299        109.41860199       0.14540100098    
 G21_30          109.51899719        109.36745453       0.15154266357    
 G21_31          109.46399689        109.29769897       0.16629791260    
 G21_32          109.40399933        109.26079559       0.14320373535    
 G21_33          109.33899689        109.18829346       0.15070343018    
 G21_34          109.31900024        109.20114899       0.11785125732    
 G21_35          109.54900360        109.43229675       0.11670684814    
 G21_36          109.55400085        109.46501160       8.89892578125E-02
 G21_37          109.51399994        109.44810486       6.58950805664E-02
 G21_38          109.53399658        109.41790771       0.11608886719    
 G21_39          109.45899963        109.33099365       0.12800598145    
 G21_40          109.44899750        109.32099915       0.12799835205    
 G21_41          109.48899841        109.40515900       8.38394165039E-02
 G21_42          109.52899933        109.43280792       9.61914062500E-02
 G21_43          109.46399689        109.36125946       0.10273742676    
 G21_44          109.51399994        109.41243744       0.10156250000    
 G21_45          109.55899811        109.40264893       0.15634918213    
 G21_46          109.53900146        109.47940826       5.95932006836E-02
 G21_47          109.61399841        109.57002258       4.39758300781E-02
 G21_48          109.65899658        109.57288361       8.61129760742E-02
 G21_49          109.56900024        109.44357300       0.12542724609    
 G21_50          109.48899841        109.35722351       0.13177490234    
 G21_51          109.45400238        109.31491089       0.13909149170    
 G21_52          109.39900208        109.25777435       0.14122772217    
 G21_53          109.39399719        109.28119659       0.11280059814    
 G21_54          109.42400360        109.29353333       0.13047027588    
 G21_55          109.39900208        109.29012299       0.10887908936    
 G21_56          109.39399719        109.28616333       0.10783386230    
 G21_57          109.42400360        109.32559967       9.84039306641E-02
 G21_58          109.42900085        109.32408142       0.10491943359    
 G21_59          109.43900299        109.33069611       0.10830688477    
 G21_60          109.45400238        109.34092712       0.11307525635    
 G21_61          109.43399811        109.33313751       0.10086059570    
 G21_62          109.40899658        109.30323029       0.10576629639    
 G21_63          109.35900116        109.24537659       0.11362457275    
 G21_64          109.38400269        109.27177429       0.11222839355    
 G21_65          109.39900208        109.27871704       0.12028503418    
 G21_66          109.42400360        109.32966614       9.43374633789E-02
 G21_67          109.45400238        109.36338806       9.06143188477E-02
 G21_68          109.49900055        109.41020203       8.87985229492E-02
 G21_69          109.50399780        109.41213989       9.18579101562E-02
 G21_70          109.55400085        109.50656128       4.74395751953E-02
 G21_71          109.66899872        109.64125061       2.77481079102E-02
 G21_72          109.79900360        109.81548309      -1.64794921875E-02
 G21_73          109.83399963        109.78622437       4.77752685547E-02
 G21_74          109.82900238        109.77972412       4.92782592773E-02
 G21_75          109.82399750        109.76469421       5.93032836914E-02
 G21_76          109.82900238        109.77820587       5.07965087891E-02
 G21_77          109.81400299        109.77523804       3.87649536133E-02
 G21_78          110.26899719        110.30100250      -3.20053100586E-02
 G21_79          110.32399750        110.42649841      -0.10250091553    
 G21_80          110.45400238        110.54553986      -9.15374755859E-02
 G21_81          110.40399933        110.44833374      -4.43344116211E-02
 G21_82          110.37400055        110.38728333      -1.32827758789E-02
 G21_83          110.42400360        110.42765808      -3.65447998047E-03
 G21_84          110.44400024        110.45269775      -8.69750976562E-03
 G21_85          110.42900085        110.42709351       1.90734863281E-03
 G21_86          110.41400146        110.40058136       1.34201049805E-02
 G21_87          110.21900177        110.08902740       0.12997436523    
 G21_88          110.23899841        110.14951324       8.94851684570E-02
 G21_89          110.22399902        110.16251373       6.14852905273E-02
 G21_90          110.20400238        110.15204620       5.19561767578E-02
 G21_91          110.23400116        110.23784637      -3.84521484375E-03
 G21_92          110.20400238        110.05095673       0.15304565430    
 G21_93          109.98100281        109.83786011       0.14314270020    
 G21_94          109.87400055        109.78591156       8.80889892578E-02
 G21_95          109.87400055        109.73906708       0.13493347168    
 G21_96          109.80899811        109.72320557       8.57925415039E-02
 G21_97          109.84400177        109.76487732       7.91244506836E-02
 G21_98          109.92900085        109.86641693       6.25839233398E-02
 G21_99          109.94899750        109.90543365       4.35638427734E-02
 G21_100         110.00399780        109.95079041       5.32073974609E-02
 G21_101         110.16899872        110.14501190       2.39868164062E-02
 G21_102         110.16400146        110.15089417       1.31072998047E-02
 G21_103         110.28150177        110.25936127       2.21405029297E-02
 G21_104         110.39900208        110.48805237      -8.90502929688E-02
 G21_105         110.73400116        110.80271912      -6.87179565430E-02
 G21_106         110.72899628        110.75177002      -2.27737426758E-02
 G21_107         110.71399689        110.72229004      -8.29315185547E-03
 G21_108         110.62400055        110.57123566       5.27648925781E-02
 G21_109         110.44400024        110.36133575       8.26644897461E-02
 G21_110         110.23400116        110.08283997       0.15116119385    
 G21_111         110.11399841        110.04518890       6.88095092773E-02
 G21_112         110.13899994        110.00449371       0.13450622559    
 G21_113         110.08399963        109.95642853       0.12757110596    
 G21_114         110.01899719        109.90507507       0.11392211914    
 G21_115         109.97399902        109.88034058       9.36584472656E-02
 G21_116         109.97399902        109.87839508       9.56039428711E-02
 G21_117         110.00399780        109.92518616       7.88116455078E-02
 G21_118         110.01399994        109.94020081       7.37991333008E-02
 G21_119         109.98400116        109.92430878       5.96923828125E-02
 G21_120         109.95400238        109.85971832       9.42840576172E-02
 G21_121         109.94400024        109.84793854       9.60617065430E-02
 G21_122         110.07900238        110.04667664       3.23257446289E-02
 G21_123         110.13899994        110.12144470       1.75552368164E-02
 G21_124         109.98400116        109.91539001       6.86111450195E-02
 G21_125         109.97399902        109.87359619       0.10040283203    
 G21_126         109.96399689        109.86419678       9.98001098633E-02
 G21_127         109.95400238        109.86327362       9.07287597656E-02
 G21_128         109.91899872        109.83241272       8.65859985352E-02
 G21_129         109.77400208        109.66858673       0.10541534424    
 G21_130         109.78399658        109.68763733       9.63592529297E-02
 G21_131         109.84400177        109.74285126       0.10115051270    
 G21_132         109.82399750        109.72219849       0.10179901123    

 HEAD/DRAWDOWN SUM OF SQUARED DIFFERENCE:    1.23274E+01

 Run end date and time (yyyy/mm/dd hh:mm:ss): 2016/07/07 11:55:41
 Elapsed run time:  8.810 Seconds

