                                  MODFLOW-2000
      U.S. GEOLOGICAL SURVEY MODULAR FINITE-DIFFERENCE GROUND-WATER FLOW MODEL
                           VERSION 1.18.01 06/20/2008


 This model run combines GLOBAL and LIST output into this single file.

 GLOBAL LISTING FILE: t5.lst
                         UNIT    7
#                                                                                                                                                                                                       
# Input files                                                                                                                                                                                           

 OPENING t5.dis
 FILE TYPE:DIS   UNIT    8   STATUS:OLD    
 FORMAT:FORMATTED              ACCESS:SEQUENTIAL          

 OPENING t5.bas
 FILE TYPE:BAS6   UNIT    9   STATUS:OLD    
 FORMAT:FORMATTED              ACCESS:SEQUENTIAL          

 OPENING t5.bcf
 FILE TYPE:BCF6   UNIT   10   STATUS:OLD    
 FORMAT:FORMATTED              ACCESS:SEQUENTIAL          

 OPENING t5.mnw
 FILE TYPE:MNW1   UNIT   75   STATUS:OLD    
 FORMAT:FORMATTED              ACCESS:SEQUENTIAL          

 OPENING t5.pcg
 FILE TYPE:PCG   UNIT   74   STATUS:OLD    
 FORMAT:FORMATTED              ACCESS:SEQUENTIAL          

 OPENING t5.oc
 FILE TYPE:OC   UNIT   71   STATUS:OLD    
 FORMAT:FORMATTED              ACCESS:SEQUENTIAL          

 OPENING t5.lmt
 FILE TYPE:LMT6   UNIT   66   STATUS:OLD    
 FORMAT:FORMATTED              ACCESS:SEQUENTIAL          
#                                                                                                                                                                                                       
# Binary output files                                                                                                                                                                                   

 OPENING t5.ufh
 FILE TYPE:DATA(BINARY)   UNIT   89   STATUS:REPLACE
 FORMAT:BINARY                 ACCESS:SEQUENTIAL          

 OPENING t5.cbc
 FILE TYPE:DATA(BINARY)   UNIT   90   STATUS:REPLACE
 FORMAT:BINARY                 ACCESS:SEQUENTIAL          

 THE FREE FORMAT OPTION HAS BEEN SELECTED

 DISCRETIZATION INPUT DATA READ FROM UNIT    8
    3 LAYERS       101 ROWS       101 COLUMNS
    1 STRESS PERIOD(S) IN SIMULATION
 MODEL TIME UNIT IS SECONDS
 MODEL LENGTH UNIT IS FEET
 THE GROUND-WATER TRANSPORT PROCESS IS INACTIVE

 THE OBSERVATION PROCESS IS INACTIVE
 THE SENSITIVITY PROCESS IS INACTIVE
 THE PARAMETER-ESTIMATION PROCESS IS INACTIVE

 MODE: FORWARD

  Confining bed flag for each layer:
   0   0   0

     275629  ELEMENTS OF GX ARRAY USED OUT OF     275629
      30603  ELEMENTS OF GZ ARRAY USED OUT OF      30603
      30603  ELEMENTS OF IG ARRAY USED OUT OF      30603



                               DELR
 READING ON UNIT    8 WITH FORMAT: (10F11.0)           
   2798.0       2465.0       2172.0       1914.0       1687.0    
   1486.0       1309.0       1154.0       1017.0       895.80    
   789.40       695.50       612.90       540.00       475.80    
   419.30       369.40       325.50       286.80       252.70    
   222.70       196.20       172.90       152.30       134.20    
   118.30       104.20       91.830       80.920       71.300    
   62.820       55.360       48.780       42.980       37.870    
   33.370       29.400       25.910       22.830       20.110    
   17.720       15.620       13.760       12.120       10.680    
   9.4140       8.2950       7.3090       6.4400       5.6740    
   5.0000       5.6740       6.4400       7.3090       8.2950    
   9.4140       10.680       12.120       13.760       15.620    
   17.720       20.110       22.830       25.910       29.400    
   33.370       37.870       42.980       48.780       55.360    
   62.820       71.300       80.920       91.830       104.20    
   118.30       134.20       152.30       172.90       196.20    
   222.70       252.70       286.80       325.50       369.40    
   419.30       475.80       540.00       612.90       695.50    
   789.40       895.80       1017.0       1154.0       1309.0    
   1486.0       1687.0       1914.0       2172.0       2465.0    
   2798.0    



                               DELC
 READING ON UNIT    8 WITH FORMAT: (10F11.0)           
   2798.0       2465.0       2172.0       1914.0       1687.0    
   1486.0       1309.0       1154.0       1017.0       895.80    
   789.40       695.50       612.90       540.00       475.80    
   419.30       369.40       325.50       286.80       252.70    
   222.70       196.20       172.90       152.30       134.20    
   118.30       104.20       91.830       80.920       71.300    
   62.820       55.360       48.780       42.980       37.870    
   33.370       29.400       25.910       22.830       20.110    
   17.720       15.620       13.760       12.120       10.680    
   9.4140       8.2950       7.3090       6.4400       5.6740    
   5.0000       5.6740       6.4400       7.3090       8.2950    
   9.4140       10.680       12.120       13.760       15.620    
   17.720       20.110       22.830       25.910       29.400    
   33.370       37.870       42.980       48.780       55.360    
   62.820       71.300       80.920       91.830       104.20    
   118.30       134.20       152.30       172.90       196.20    
   222.70       252.70       286.80       325.50       369.40    
   419.30       475.80       540.00       612.90       695.50    
   789.40       895.80       1017.0       1154.0       1309.0    
   1486.0       1687.0       1914.0       2172.0       2465.0    
   2798.0    

 TOP ELEVATION OF LAYER 1 =   220.000    

   MODEL LAYER BOTTOM EL. =   120.000     FOR LAYER   1

   MODEL LAYER BOTTOM EL. =   100.000     FOR LAYER   2

   MODEL LAYER BOTTOM EL. =   0.00000     FOR LAYER   3


 STRESS PERIOD     LENGTH       TIME STEPS     MULTIPLIER FOR DELT    SS FLAG
 ----------------------------------------------------------------------------
        1        8.6400000E+07    100                    1.100         TR

 TRANSIENT SIMULATION




 PCG2 -- CONJUGATE GRADIENT SOLUTION PACKAGE, VERSION 2.4, 12/29/98
 # MXITER, ITER1, NPCOND
 MAXIMUM OF   1000 CALLS OF SOLUTION ROUTINE
 MAXIMUM OF     10 INTERNAL ITERATIONS PER CALL TO SOLUTION ROUTINE
 MATRIX PRECONDITIONING TYPE :    1
      81206 ELEMENTS IN X ARRAY ARE USED BY PCG
      70000 ELEMENTS IN IX ARRAY ARE USED BY PCG
     122412 ELEMENTS IN Z ARRAY ARE USED BY PCG

      81206  ELEMENTS OF X ARRAY USED OUT OF      81206
     122412  ELEMENTS OF Z ARRAY USED OUT OF     122412
      70000  ELEMENTS OF IX ARRAY USED OUT OF      70000
          0  ELEMENTS OF XHS ARRAY USED OUT OF          1



                                    SOLUTION BY THE CONJUGATE-GRADIENT METHOD
                                   -------------------------------------------
                    MAXIMUM NUMBER OF CALLS TO PCG ROUTINE =     1000
                        MAXIMUM ITERATIONS PER CALL TO PCG =       10
                               MATRIX PRECONDITIONING TYPE =        1
        RELAXATION FACTOR (ONLY USED WITH PRECOND. TYPE 1) =    0.10000E+01
 PARAMETER OF POLYNOMIAL PRECOND. = 2 (2) OR IS CALCULATED :        2
                         HEAD CHANGE CRITERION FOR CLOSURE =    0.10000E-02
                     RESIDUAL CHANGE CRITERION FOR CLOSURE =    0.10000E+00
            PCG HEAD AND RESIDUAL CHANGE PRINTOUT INTERVAL =        1
     PRINTING FROM SOLVER IS LIMITED(1) OR SUPPRESSED (>1) =        1
                                         DAMPING PARAMETER =    0.10000E+01
 
 # MNW1 Package benchmarking - Transient 4                                       
 THE FREE FORMAT OPTION HAS BEEN SELECTED
    3 LAYERS       101 ROWS       101 COLUMNS
    1 STRESS PERIOD(S) IN SIMULATION

 BAS6 -- BASIC PACKAGE, VERSION 6, 1/11/2000 INPUT READ FROM UNIT    9
         15 ELEMENTS IN IR ARRAY ARE USED BY BAS

 BCF6 -- BLOCK-CENTERED FLOW PACKAGE, VERSION 6, 1/11/2000
         INPUT READ FROM UNIT 10
 TRANSIENT SIMULATION
 HEAD AT CELLS THAT CONVERT TO DRY=  0.10000E+31
 WETTING CAPABILITY IS NOT ACTIVE
      LAYER  LAYER-TYPE CODE     INTERBLOCK T
      --------------------------------------------
         1            0          0 -- HARMONIC    
         2            0          0 -- HARMONIC    
         3            0          0 -- HARMONIC    
      30606 ELEMENTS IN RX ARRAY ARE USED BY BCF

 MNW1 -- MULTI-NODE WELL PACKAGE, VERSION 1, 8/13/2002.
    INPUT READ FROM UNIT  75
 MAXIMUM OF    2 WELLS
 CELL-BY-CELL FLOWS WILL BE PRINTED WHEN ICBCFL NOT 0
  The heads at the beginning of SP:   1 will be the default reference elevations.

 Flow rates will not be estimated after the9999th iteration

  A WEL1   data input file will be written to t.wl1 on unit   91                

  A BYNODE data input file will be written to t.ByNode on unit   92             

  A QSUM   data input file will be written to t.Qsum on unit   93               
  30603 ELEMENTS IN X ARRAY ARE USED FOR MNW1

      30606  ELEMENTS OF RX ARRAY USED OUT OF      30606
      30657  ELEMENTS OF RZ ARRAY USED OUT OF      30657
         15  ELEMENTS OF IR ARRAY USED OUT OF         15
1
 # MNW1 Package benchmarking - Transient 4                                       
                                                                                 



                     BOUNDARY ARRAY FOR LAYER   1
 READING ON UNIT    9 WITH FORMAT: (20I3)              

           BOUNDARY ARRAY =              0 FOR LAYER   2



                     BOUNDARY ARRAY FOR LAYER   3
 READING ON UNIT    9 WITH FORMAT: (20I3)              

 AQUIFER HEAD WILL BE SET TO  999.00     AT ALL NO-FLOW NODES (IBOUND=0).

             INITIAL HEAD =   30.0000     FOR LAYER   1

             INITIAL HEAD =   20.0000     FOR LAYER   2

             INITIAL HEAD =   10.0000     FOR LAYER   3

 OUTPUT CONTROL IS SPECIFIED EVERY TIME STEP
 HEAD PRINT FORMAT CODE IS   0    DRAWDOWN PRINT FORMAT CODE IS   0
 HEADS WILL BE SAVED ON UNIT   89    DRAWDOWNS WILL BE SAVED ON UNIT    0

 COLUMN TO ROW ANISOTROPY =   1.00000    

     PRIMARY STORAGE COEF =  1.000000E-04 FOR LAYER   1

     TRANSMIS. ALONG ROWS =  4.630000E-02 FOR LAYER   1

 VERT HYD COND /THICKNESS =   0.00000     FOR LAYER   1

     PRIMARY STORAGE COEF =  1.000000E-04 FOR LAYER   2

     TRANSMIS. ALONG ROWS =   0.00000     FOR LAYER   2

 VERT HYD COND /THICKNESS =   0.00000     FOR LAYER   2

     PRIMARY STORAGE COEF =  1.000000E-04 FOR LAYER   3

     TRANSMIS. ALONG ROWS =  1.157000E-02 FOR LAYER   3
1
                            STRESS PERIOD NO.    1, LENGTH =  0.8640000E+08
                            -----------------------------------------------

                              NUMBER OF TIME STEPS =   100

                               MULTIPLIER FOR DELT =     1.100

                            INITIAL TIME STEP SIZE =   627.0121    
0              2 MNW WELLS
    No.   Lay   Row   Col    Stress   QW param      Rw       Skin    WL Limit    WL Refer   NonLinear Cp  QW Group  Cell-To-Well  Min-Qoff  Min-Qon  Site Identifier 
      1     1    51    51  0.000      0.000     0.5000      0.000      0.000      100.0      0.00000             1 0.425903         0.000     0.000  Well-1                          
      2     3    51    51  0.000      0.000     0.5000      0.000      0.000      100.0      0.00000             1 0.106430         0.000     0.000  Well-1                          
 
 SOLVING FOR HEAD 


     6 CALLS TO PCG ROUTINE FOR TIME STEP   1 IN STRESS PERIOD    1
    42 TOTAL ITERATIONS

 HEAD/DRAWDOWN PRINTOUT FLAG = 1     TOTAL BUDGET PRINTOUT FLAG = 0
 CELL-BY-CELL FLOW TERM FLAG = 1

 OUTPUT FLAGS FOR ALL LAYERS ARE THE SAME:
   HEAD    DRAWDOWN  HEAD  DRAWDOWN
 PRINTOUT  PRINTOUT  SAVE    SAVE
 ----------------------------------
     0         0       1       0

              MNW PERIOD =    1  STEP =    1
  Entry LAY ROW COL         Q      H-Well       H-Cell       DD           QW-Avg      s-LINEAR   s-NonLINEAR
      1   1  51  51 -.176050      25.6652      26.0785     -74.3348      0.00000     0.413371      0.00000    
      2   3  51  51 0.176050      25.6652      24.0110     -74.3348      0.00000     -1.65419      0.00000    

      Multi-Node Rates & Average QW 
 Site Identifier      ENTRY: Begin - End  Q-Total       H-Well       DD           QW-Avg
Well-1                          1     2 0.208167E-14  25.6652     -74.3348      0.00000    
 
 UBUDSV SAVING "             MNW" ON UNIT 90 AT TIME STEP  1, STRESS PERIOD    1


 ***Link-MT3DMS Package***
 OPENING LINK-MT3DMS OUTPUT FILE: t5.ftl                                                                                                                                                                                                  
 ON UNIT NUMBER:   333
 FILE TYPE: UNFORMATTED
 HEADER OPTION: EXTENDED
 ***Link-MT3DMS Package***


 SAVING SATURATED THICKNESS AND FLOW TERMS ON UNIT  333 FOR MT3DMS
 BY THE LINK-MT3DMS PACKAGE V6.3 AT TIME STEP    1, STRESS PERIOD    1


 HEAD WILL BE SAVED ON UNIT   89 AT END OF TIME STEP   1, STRESS PERIOD    1
 
 SOLVING FOR HEAD 
     4 CALLS TO PCG ROUTINE FOR TIME STEP   2 IN STRESS PERIOD    1
    27 TOTAL ITERATIONS

 HEAD/DRAWDOWN PRINTOUT FLAG = 0     TOTAL BUDGET PRINTOUT FLAG = 1
 CELL-BY-CELL FLOW TERM FLAG = 0
 REUSING PREVIOUS VALUES OF IOFLG

 SAVING SATURATED THICKNESS AND FLOW TERMS ON UNIT  333 FOR MT3DMS
 BY THE LINK-MT3DMS PACKAGE V6.3 AT TIME STEP    2, STRESS PERIOD    1

1
  VOLUMETRIC BUDGET FOR ENTIRE MODEL AT END OF TIME STEP  2 IN STRESS PERIOD   1
  ------------------------------------------------------------------------------

     CUMULATIVE VOLUMES      L**3       RATES FOR THIS TIME STEP      L**3/T
     ------------------                 ------------------------

           IN:                                      IN:
           ---                                      ---
             STORAGE =         222.3794               STORAGE =           0.1624
       CONSTANT HEAD =       1.5108E-03         CONSTANT HEAD =       1.3166E-06
                 MNW =         222.3908                   MNW =           0.1624

            TOTAL IN =         444.7717              TOTAL IN =           0.3248

          OUT:                                     OUT:
          ----                                     ----
             STORAGE =         222.3349               STORAGE =           0.1622
       CONSTANT HEAD =       1.4235E-03         CONSTANT HEAD =       9.9661E-07
                 MNW =         222.3908                   MNW =           0.1624

           TOTAL OUT =         444.7271             TOTAL OUT =           0.3246

            IN - OUT =       4.4586E-02              IN - OUT =       1.7589E-04

 PERCENT DISCREPANCY =           0.01     PERCENT DISCREPANCY =           0.05






          TIME SUMMARY AT END OF TIME STEP   2 IN STRESS PERIOD    1
                    SECONDS     MINUTES      HOURS       DAYS        YEARS
                    -----------------------------------------------------------
   TIME STEP LENGTH  689.71      11.495     0.19159     7.98279E-03 2.18557E-05
 STRESS PERIOD TIME  1316.7      21.945     0.36576     1.52399E-02 4.17245E-05
         TOTAL TIME  1316.7      21.945     0.36576     1.52399E-02 4.17245E-05
1
 
 SOLVING FOR HEAD 
     4 CALLS TO PCG ROUTINE FOR TIME STEP   3 IN STRESS PERIOD    1
    25 TOTAL ITERATIONS

 HEAD/DRAWDOWN PRINTOUT FLAG = 0     TOTAL BUDGET PRINTOUT FLAG = 1
 CELL-BY-CELL FLOW TERM FLAG = 0
 REUSING PREVIOUS VALUES OF IOFLG

 SAVING SATURATED THICKNESS AND FLOW TERMS ON UNIT  333 FOR MT3DMS
 BY THE LINK-MT3DMS PACKAGE V6.3 AT TIME STEP    3, STRESS PERIOD    1

1
  VOLUMETRIC BUDGET FOR ENTIRE MODEL AT END OF TIME STEP  3 IN STRESS PERIOD   1
  ------------------------------------------------------------------------------

     CUMULATIVE VOLUMES      L**3       RATES FOR THIS TIME STEP      L**3/T
     ------------------                 ------------------------

           IN:                                      IN:
           ---                                      ---
             STORAGE =         340.9372               STORAGE =           0.1563
       CONSTANT HEAD =       2.5822E-03         CONSTANT HEAD =       1.4121E-06
                 MNW =         340.8606                   MNW =           0.1562

            TOTAL IN =         681.8004              TOTAL IN =           0.3124

          OUT:                                     OUT:
          ----                                     ----
             STORAGE =         340.7524               STORAGE =           0.1561
       CONSTANT HEAD =       1.9322E-03         CONSTANT HEAD =       6.7043E-07
                 MNW =         340.8606                   MNW =           0.1562

           TOTAL OUT =         681.6150             TOTAL OUT =           0.3122

            IN - OUT =           0.1854              IN - OUT =       1.8561E-04

 PERCENT DISCREPANCY =           0.03     PERCENT DISCREPANCY =           0.06






          TIME SUMMARY AT END OF TIME STEP   3 IN STRESS PERIOD    1
                    SECONDS     MINUTES      HOURS       DAYS        YEARS
                    -----------------------------------------------------------
   TIME STEP LENGTH  758.68      12.645     0.21075     8.78107E-03 2.40413E-05
 STRESS PERIOD TIME  2075.4      34.590     0.57650     2.40209E-02 6.57658E-05
         TOTAL TIME  2075.4      34.590     0.57650     2.40209E-02 6.57658E-05
1
 
 SOLVING FOR HEAD 
     4 CALLS TO PCG ROUTINE FOR TIME STEP   4 IN STRESS PERIOD    1
    22 TOTAL ITERATIONS

 HEAD/DRAWDOWN PRINTOUT FLAG = 0     TOTAL BUDGET PRINTOUT FLAG = 1
 CELL-BY-CELL FLOW TERM FLAG = 0
 REUSING PREVIOUS VALUES OF IOFLG

 SAVING SATURATED THICKNESS AND FLOW TERMS ON UNIT  333 FOR MT3DMS
 BY THE LINK-MT3DMS PACKAGE V6.3 AT TIME STEP    4, STRESS PERIOD    1

1
  VOLUMETRIC BUDGET FOR ENTIRE MODEL AT END OF TIME STEP  4 IN STRESS PERIOD   1
  ------------------------------------------------------------------------------

     CUMULATIVE VOLUMES      L**3       RATES FOR THIS TIME STEP      L**3/T
     ------------------                 ------------------------

           IN:                                      IN:
           ---                                      ---
             STORAGE =         468.0527               STORAGE =           0.1523
       CONSTANT HEAD =       3.8390E-03         CONSTANT HEAD =       1.5060E-06
                 MNW =         467.8375                   MNW =           0.1521

            TOTAL IN =         935.8940              TOTAL IN =           0.3045

          OUT:                                     OUT:
          ----                                     ----
             STORAGE =         467.7082               STORAGE =           0.1521
       CONSTANT HEAD =       2.7005E-03         CONSTANT HEAD =       9.2070E-07
                 MNW =         467.8375                   MNW =           0.1521

           TOTAL OUT =         935.5484             TOTAL OUT =           0.3043

            IN - OUT =           0.3456              IN - OUT =       1.9208E-04

 PERCENT DISCREPANCY =           0.04     PERCENT DISCREPANCY =           0.06






          TIME SUMMARY AT END OF TIME STEP   4 IN STRESS PERIOD    1
                    SECONDS     MINUTES      HOURS       DAYS        YEARS
                    -----------------------------------------------------------
   TIME STEP LENGTH  834.55      13.909     0.23182     9.65918E-03 2.64454E-05
 STRESS PERIOD TIME  2910.0      48.499     0.80832     3.36801E-02 9.22112E-05
         TOTAL TIME  2910.0      48.499     0.80832     3.36801E-02 9.22112E-05
1
 
 SOLVING FOR HEAD 
     4 CALLS TO PCG ROUTINE FOR TIME STEP   5 IN STRESS PERIOD    1
    20 TOTAL ITERATIONS

 HEAD/DRAWDOWN PRINTOUT FLAG = 0     TOTAL BUDGET PRINTOUT FLAG = 1
 CELL-BY-CELL FLOW TERM FLAG = 0
 REUSING PREVIOUS VALUES OF IOFLG

 SAVING SATURATED THICKNESS AND FLOW TERMS ON UNIT  333 FOR MT3DMS
 BY THE LINK-MT3DMS PACKAGE V6.3 AT TIME STEP    5, STRESS PERIOD    1

1
  VOLUMETRIC BUDGET FOR ENTIRE MODEL AT END OF TIME STEP  5 IN STRESS PERIOD   1
  ------------------------------------------------------------------------------

     CUMULATIVE VOLUMES      L**3       RATES FOR THIS TIME STEP      L**3/T
     ------------------                 ------------------------

           IN:                                      IN:
           ---                                      ---
             STORAGE =         605.1256               STORAGE =           0.1493
       CONSTANT HEAD =       5.3071E-03         CONSTANT HEAD =       1.5992E-06
                 MNW =         604.7859                   MNW =           0.1492

            TOTAL IN =        1209.9169              TOTAL IN =           0.2985

          OUT:                                     OUT:
          ----                                     ----
             STORAGE =         604.6745               STORAGE =           0.1492
       CONSTANT HEAD =       3.2953E-03         CONSTANT HEAD =       6.4790E-07
                 MNW =         604.7859                   MNW =           0.1492

           TOTAL OUT =        1209.4637             TOTAL OUT =           0.2984

            IN - OUT =           0.4531              IN - OUT =       1.1706E-04

 PERCENT DISCREPANCY =           0.04     PERCENT DISCREPANCY =           0.04






          TIME SUMMARY AT END OF TIME STEP   5 IN STRESS PERIOD    1
                    SECONDS     MINUTES      HOURS       DAYS        YEARS
                    -----------------------------------------------------------
   TIME STEP LENGTH  918.01      15.300     0.25500     1.06251E-02 2.90899E-05
 STRESS PERIOD TIME  3828.0      63.800      1.0633     4.43052E-02 1.21301E-04
         TOTAL TIME  3828.0      63.800      1.0633     4.43052E-02 1.21301E-04
1
 
 SOLVING FOR HEAD 
     4 CALLS TO PCG ROUTINE FOR TIME STEP   6 IN STRESS PERIOD    1
    20 TOTAL ITERATIONS

 HEAD/DRAWDOWN PRINTOUT FLAG = 0     TOTAL BUDGET PRINTOUT FLAG = 1
 CELL-BY-CELL FLOW TERM FLAG = 0
 REUSING PREVIOUS VALUES OF IOFLG

 SAVING SATURATED THICKNESS AND FLOW TERMS ON UNIT  333 FOR MT3DMS
 BY THE LINK-MT3DMS PACKAGE V6.3 AT TIME STEP    6, STRESS PERIOD    1

1
  VOLUMETRIC BUDGET FOR ENTIRE MODEL AT END OF TIME STEP  6 IN STRESS PERIOD   1
  ------------------------------------------------------------------------------

     CUMULATIVE VOLUMES      L**3       RATES FOR THIS TIME STEP      L**3/T
     ------------------                 ------------------------

           IN:                                      IN:
           ---                                      ---
             STORAGE =         753.5013               STORAGE =           0.1469
       CONSTANT HEAD =       7.7026E-03         CONSTANT HEAD =       2.3723E-06
                 MNW =         753.0178                   MNW =           0.1468

            TOTAL IN =        1506.5269              TOTAL IN =           0.2937

          OUT:                                     OUT:
          ----                                     ----
             STORAGE =         752.9130               STORAGE =           0.1468
       CONSTANT HEAD =       3.5247E-03         CONSTANT HEAD =       2.2718E-07
                 MNW =         753.0178                   MNW =           0.1468

           TOTAL OUT =        1505.9342             TOTAL OUT =           0.2936

            IN - OUT =           0.5927              IN - OUT =       1.3810E-04

 PERCENT DISCREPANCY =           0.04     PERCENT DISCREPANCY =           0.05






          TIME SUMMARY AT END OF TIME STEP   6 IN STRESS PERIOD    1
                    SECONDS     MINUTES      HOURS       DAYS        YEARS
                    -----------------------------------------------------------
   TIME STEP LENGTH  1009.8      16.830     0.28050     1.16876E-02 3.19989E-05
 STRESS PERIOD TIME  4837.8      80.630      1.3438     5.59928E-02 1.53300E-04
         TOTAL TIME  4837.8      80.630      1.3438     5.59928E-02 1.53300E-04
1
 
 SOLVING FOR HEAD 
     4 CALLS TO PCG ROUTINE FOR TIME STEP   7 IN STRESS PERIOD    1
    20 TOTAL ITERATIONS

 HEAD/DRAWDOWN PRINTOUT FLAG = 0     TOTAL BUDGET PRINTOUT FLAG = 1
 CELL-BY-CELL FLOW TERM FLAG = 0
 REUSING PREVIOUS VALUES OF IOFLG

 SAVING SATURATED THICKNESS AND FLOW TERMS ON UNIT  333 FOR MT3DMS
 BY THE LINK-MT3DMS PACKAGE V6.3 AT TIME STEP    7, STRESS PERIOD    1

1
  VOLUMETRIC BUDGET FOR ENTIRE MODEL AT END OF TIME STEP  7 IN STRESS PERIOD   1
  ------------------------------------------------------------------------------

     CUMULATIVE VOLUMES      L**3       RATES FOR THIS TIME STEP      L**3/T
     ------------------                 ------------------------

           IN:                                      IN:
           ---                                      ---
             STORAGE =         914.4543               STORAGE =           0.1449
       CONSTANT HEAD =       1.1242E-02         CONSTANT HEAD =       3.1861E-06
                 MNW =         913.8397                   MNW =           0.1448

            TOTAL IN =        1828.3052              TOTAL IN =           0.2897

          OUT:                                     OUT:
          ----                                     ----
             STORAGE =         913.7625               STORAGE =           0.1448
       CONSTANT HEAD =       4.0174E-03         CONSTANT HEAD =       4.4350E-07
                 MNW =         913.8397                   MNW =           0.1448

           TOTAL OUT =        1827.6062             TOTAL OUT =           0.2896

            IN - OUT =           0.6990              IN - OUT =       9.5844E-05

 PERCENT DISCREPANCY =           0.04     PERCENT DISCREPANCY =           0.03






          TIME SUMMARY AT END OF TIME STEP   7 IN STRESS PERIOD    1
                    SECONDS     MINUTES      HOURS       DAYS        YEARS
                    -----------------------------------------------------------
   TIME STEP LENGTH  1110.8      18.513     0.30855     1.28564E-02 3.51988E-05
 STRESS PERIOD TIME  5948.6      99.143      1.6524     6.88492E-02 1.88499E-04
         TOTAL TIME  5948.6      99.143      1.6524     6.88492E-02 1.88499E-04
1
 
 SOLVING FOR HEAD 
     4 CALLS TO PCG ROUTINE FOR TIME STEP   8 IN STRESS PERIOD    1
    20 TOTAL ITERATIONS

 HEAD/DRAWDOWN PRINTOUT FLAG = 0     TOTAL BUDGET PRINTOUT FLAG = 1
 CELL-BY-CELL FLOW TERM FLAG = 0
 REUSING PREVIOUS VALUES OF IOFLG

 SAVING SATURATED THICKNESS AND FLOW TERMS ON UNIT  333 FOR MT3DMS
 BY THE LINK-MT3DMS PACKAGE V6.3 AT TIME STEP    8, STRESS PERIOD    1

1
  VOLUMETRIC BUDGET FOR ENTIRE MODEL AT END OF TIME STEP  8 IN STRESS PERIOD   1
  ------------------------------------------------------------------------------

     CUMULATIVE VOLUMES      L**3       RATES FOR THIS TIME STEP      L**3/T
     ------------------                 ------------------------

           IN:                                      IN:
           ---                                      ---
             STORAGE =        1089.3519               STORAGE =           0.1431
       CONSTANT HEAD =       1.3368E-02         CONSTANT HEAD =       1.7399E-06
                 MNW =        1088.6068                   MNW =           0.1430

            TOTAL IN =        2177.9722              TOTAL IN =           0.2862

          OUT:                                     OUT:
          ----                                     ----
             STORAGE =        1088.5537               STORAGE =           0.1431
       CONSTANT HEAD =       4.4739E-03         CONSTANT HEAD =       3.7360E-07
                 MNW =        1088.6068                   MNW =           0.1430

           TOTAL OUT =        2177.1650             TOTAL OUT =           0.2861

            IN - OUT =           0.8071              IN - OUT =       8.8483E-05

 PERCENT DISCREPANCY =           0.04     PERCENT DISCREPANCY =           0.03






          TIME SUMMARY AT END OF TIME STEP   8 IN STRESS PERIOD    1
                    SECONDS     MINUTES      HOURS       DAYS        YEARS
                    -----------------------------------------------------------
   TIME STEP LENGTH  1221.9      20.364     0.33941     1.41420E-02 3.87187E-05
 STRESS PERIOD TIME  7170.4      119.51      1.9918     8.29912E-02 2.27218E-04
         TOTAL TIME  7170.4      119.51      1.9918     8.29912E-02 2.27218E-04
1
 
 SOLVING FOR HEAD 
     4 CALLS TO PCG ROUTINE FOR TIME STEP   9 IN STRESS PERIOD    1
    17 TOTAL ITERATIONS

 HEAD/DRAWDOWN PRINTOUT FLAG = 0     TOTAL BUDGET PRINTOUT FLAG = 1
 CELL-BY-CELL FLOW TERM FLAG = 0
 REUSING PREVIOUS VALUES OF IOFLG

 SAVING SATURATED THICKNESS AND FLOW TERMS ON UNIT  333 FOR MT3DMS
 BY THE LINK-MT3DMS PACKAGE V6.3 AT TIME STEP    9, STRESS PERIOD    1

1
  VOLUMETRIC BUDGET FOR ENTIRE MODEL AT END OF TIME STEP  9 IN STRESS PERIOD   1
  ------------------------------------------------------------------------------

     CUMULATIVE VOLUMES      L**3       RATES FOR THIS TIME STEP      L**3/T
     ------------------                 ------------------------

           IN:                                      IN:
           ---                                      ---
             STORAGE =        1279.6910               STORAGE =           0.1416
       CONSTANT HEAD =       1.4802E-02         CONSTANT HEAD =       1.0675E-06
                 MNW =        1278.7303                   MNW =           0.1415

            TOTAL IN =        2558.4363              TOTAL IN =           0.2831

          OUT:                                     OUT:
          ----                                     ----
             STORAGE =        1278.7759               STORAGE =           0.1415
       CONSTANT HEAD =       4.8145E-03         CONSTANT HEAD =       2.5347E-07
                 MNW =        1278.7303                   MNW =           0.1415

           TOTAL OUT =        2557.5110             TOTAL OUT =           0.2830

            IN - OUT =           0.9253              IN - OUT =       8.7798E-05

 PERCENT DISCREPANCY =           0.04     PERCENT DISCREPANCY =           0.03






          TIME SUMMARY AT END OF TIME STEP   9 IN STRESS PERIOD    1
                    SECONDS     MINUTES      HOURS       DAYS        YEARS
                    -----------------------------------------------------------
   TIME STEP LENGTH  1344.1      22.401     0.37335     1.55562E-02 4.25906E-05
 STRESS PERIOD TIME  8514.5      141.91      2.3651     9.85474E-02 2.69808E-04
         TOTAL TIME  8514.5      141.91      2.3651     9.85474E-02 2.69808E-04
1
 
 SOLVING FOR HEAD 
     4 CALLS TO PCG ROUTINE FOR TIME STEP  10 IN STRESS PERIOD    1
    17 TOTAL ITERATIONS

 HEAD/DRAWDOWN PRINTOUT FLAG = 0     TOTAL BUDGET PRINTOUT FLAG = 1
 CELL-BY-CELL FLOW TERM FLAG = 0
 REUSING PREVIOUS VALUES OF IOFLG

 SAVING SATURATED THICKNESS AND FLOW TERMS ON UNIT  333 FOR MT3DMS
 BY THE LINK-MT3DMS PACKAGE V6.3 AT TIME STEP   10, STRESS PERIOD    1

1
  VOLUMETRIC BUDGET FOR ENTIRE MODEL AT END OF TIME STEP 10 IN STRESS PERIOD   1
  ------------------------------------------------------------------------------

     CUMULATIVE VOLUMES      L**3       RATES FOR THIS TIME STEP      L**3/T
     ------------------                 ------------------------

           IN:                                      IN:
           ---                                      ---
             STORAGE =        1486.9584               STORAGE =           0.1402
       CONSTANT HEAD =       1.6615E-02         CONSTANT HEAD =       1.2262E-06
                 MNW =        1485.7788                   MNW =           0.1400

            TOTAL IN =        2972.7539              TOTAL IN =           0.2802

          OUT:                                     OUT:
          ----                                     ----
             STORAGE =        1485.9355               STORAGE =           0.1401
       CONSTANT HEAD =       5.2733E-03         CONSTANT HEAD =       3.1028E-07
                 MNW =        1485.7788                   MNW =           0.1400

           TOTAL OUT =        2971.7197             TOTAL OUT =           0.2802

            IN - OUT =           1.0342              IN - OUT =       7.3731E-05

 PERCENT DISCREPANCY =           0.03     PERCENT DISCREPANCY =           0.03






          TIME SUMMARY AT END OF TIME STEP  10 IN STRESS PERIOD    1
                    SECONDS     MINUTES      HOURS       DAYS        YEARS
                    -----------------------------------------------------------
   TIME STEP LENGTH  1478.5      24.641     0.41068     1.71118E-02 4.68496E-05
 STRESS PERIOD TIME  9993.0      166.55      2.7758     0.11566     3.16658E-04
         TOTAL TIME  9993.0      166.55      2.7758     0.11566     3.16658E-04
1
 
 SOLVING FOR HEAD 
     4 CALLS TO PCG ROUTINE FOR TIME STEP  11 IN STRESS PERIOD    1
    17 TOTAL ITERATIONS

 HEAD/DRAWDOWN PRINTOUT FLAG = 0     TOTAL BUDGET PRINTOUT FLAG = 1
 CELL-BY-CELL FLOW TERM FLAG = 0
 REUSING PREVIOUS VALUES OF IOFLG

 SAVING SATURATED THICKNESS AND FLOW TERMS ON UNIT  333 FOR MT3DMS
 BY THE LINK-MT3DMS PACKAGE V6.3 AT TIME STEP   11, STRESS PERIOD    1

1
  VOLUMETRIC BUDGET FOR ENTIRE MODEL AT END OF TIME STEP 11 IN STRESS PERIOD   1
  ------------------------------------------------------------------------------

     CUMULATIVE VOLUMES      L**3       RATES FOR THIS TIME STEP      L**3/T
     ------------------                 ------------------------

           IN:                                      IN:
           ---                                      ---
             STORAGE =        1712.8469               STORAGE =           0.1389
       CONSTANT HEAD =       1.7378E-02         CONSTANT HEAD =       4.6877E-07
                 MNW =        1711.4265                   MNW =           0.1387

            TOTAL IN =        3424.2908              TOTAL IN =           0.2776

          OUT:                                     OUT:
          ----                                     ----
             STORAGE =        1711.6995               STORAGE =           0.1388
       CONSTANT HEAD =       7.1998E-03         CONSTANT HEAD =       1.1846E-06
                 MNW =        1711.4265                   MNW =           0.1387

           TOTAL OUT =        3423.1331             TOTAL OUT =           0.2776

            IN - OUT =           1.1577              IN - OUT =       7.5966E-05

 PERCENT DISCREPANCY =           0.03     PERCENT DISCREPANCY =           0.03






          TIME SUMMARY AT END OF TIME STEP  11 IN STRESS PERIOD    1
                    SECONDS     MINUTES      HOURS       DAYS        YEARS
                    -----------------------------------------------------------
   TIME STEP LENGTH  1626.3      27.105     0.45175     1.88230E-02 5.15346E-05
 STRESS PERIOD TIME  11619.      193.65      3.2276     0.13448     3.68192E-04
         TOTAL TIME  11619.      193.65      3.2276     0.13448     3.68192E-04
1
 
 SOLVING FOR HEAD 
     3 CALLS TO PCG ROUTINE FOR TIME STEP  12 IN STRESS PERIOD    1
    15 TOTAL ITERATIONS

 HEAD/DRAWDOWN PRINTOUT FLAG = 0     TOTAL BUDGET PRINTOUT FLAG = 1
 CELL-BY-CELL FLOW TERM FLAG = 0
 REUSING PREVIOUS VALUES OF IOFLG

 SAVING SATURATED THICKNESS AND FLOW TERMS ON UNIT  333 FOR MT3DMS
 BY THE LINK-MT3DMS PACKAGE V6.3 AT TIME STEP   12, STRESS PERIOD    1

1
  VOLUMETRIC BUDGET FOR ENTIRE MODEL AT END OF TIME STEP 12 IN STRESS PERIOD   1
  ------------------------------------------------------------------------------

     CUMULATIVE VOLUMES      L**3       RATES FOR THIS TIME STEP      L**3/T
     ------------------                 ------------------------

           IN:                                      IN:
           ---                                      ---
             STORAGE =        1959.2585               STORAGE =           0.1377
       CONSTANT HEAD =       1.9838E-02         CONSTANT HEAD =       1.3755E-06
                 MNW =        1957.4772                   MNW =           0.1375

            TOTAL IN =        3916.7556              TOTAL IN =           0.2753

          OUT:                                     OUT:
          ----                                     ----
             STORAGE =        1957.9160               STORAGE =           0.1376
       CONSTANT HEAD =       8.6909E-03         CONSTANT HEAD =       8.3348E-07
                 MNW =        1957.4772                   MNW =           0.1375

           TOTAL OUT =        3915.4019             TOTAL OUT =           0.2752

            IN - OUT =           1.3538              IN - OUT =       1.0964E-04

 PERCENT DISCREPANCY =           0.03     PERCENT DISCREPANCY =           0.04






          TIME SUMMARY AT END OF TIME STEP  12 IN STRESS PERIOD    1
                    SECONDS     MINUTES      HOURS       DAYS        YEARS
                    -----------------------------------------------------------
   TIME STEP LENGTH  1788.9      29.816     0.49693     2.07053E-02 5.66881E-05
 STRESS PERIOD TIME  13408.      223.47      3.7245     0.15519     4.24880E-04
         TOTAL TIME  13408.      223.47      3.7245     0.15519     4.24880E-04
1
 
 SOLVING FOR HEAD 
     3 CALLS TO PCG ROUTINE FOR TIME STEP  13 IN STRESS PERIOD    1
    15 TOTAL ITERATIONS

 HEAD/DRAWDOWN PRINTOUT FLAG = 0     TOTAL BUDGET PRINTOUT FLAG = 1
 CELL-BY-CELL FLOW TERM FLAG = 0
 REUSING PREVIOUS VALUES OF IOFLG

 SAVING SATURATED THICKNESS AND FLOW TERMS ON UNIT  333 FOR MT3DMS
 BY THE LINK-MT3DMS PACKAGE V6.3 AT TIME STEP   13, STRESS PERIOD    1

1
  VOLUMETRIC BUDGET FOR ENTIRE MODEL AT END OF TIME STEP 13 IN STRESS PERIOD   1
  ------------------------------------------------------------------------------

     CUMULATIVE VOLUMES      L**3       RATES FOR THIS TIME STEP      L**3/T
     ------------------                 ------------------------

           IN:                                      IN:
           ---                                      ---
             STORAGE =        2228.0876               STORAGE =           0.1366
       CONSTANT HEAD =       2.4138E-02         CONSTANT HEAD =       2.1849E-06
                 MNW =        2225.9160                   MNW =           0.1364

            TOTAL IN =        4454.0278              TOTAL IN =           0.2730

          OUT:                                     OUT:
          ----                                     ----
             STORAGE =        2226.5374               STORAGE =           0.1365
       CONSTANT HEAD =       1.0343E-02         CONSTANT HEAD =       8.3955E-07
                 MNW =        2225.9160                   MNW =           0.1364

           TOTAL OUT =        4452.4639             TOTAL OUT =           0.2729

            IN - OUT =           1.5640              IN - OUT =       1.0687E-04

 PERCENT DISCREPANCY =           0.04     PERCENT DISCREPANCY =           0.04






          TIME SUMMARY AT END OF TIME STEP  13 IN STRESS PERIOD    1
                    SECONDS     MINUTES      HOURS       DAYS        YEARS
                    -----------------------------------------------------------
   TIME STEP LENGTH  1967.8      32.797     0.54662     2.27758E-02 6.23569E-05
 STRESS PERIOD TIME  15376.      256.27      4.2711     0.17796     4.87237E-04
         TOTAL TIME  15376.      256.27      4.2711     0.17796     4.87237E-04
1
 
 SOLVING FOR HEAD 
     3 CALLS TO PCG ROUTINE FOR TIME STEP  14 IN STRESS PERIOD    1
    16 TOTAL ITERATIONS

 HEAD/DRAWDOWN PRINTOUT FLAG = 0     TOTAL BUDGET PRINTOUT FLAG = 1
 CELL-BY-CELL FLOW TERM FLAG = 0
 REUSING PREVIOUS VALUES OF IOFLG

 SAVING SATURATED THICKNESS AND FLOW TERMS ON UNIT  333 FOR MT3DMS
 BY THE LINK-MT3DMS PACKAGE V6.3 AT TIME STEP   14, STRESS PERIOD    1

1
  VOLUMETRIC BUDGET FOR ENTIRE MODEL AT END OF TIME STEP 14 IN STRESS PERIOD   1
  ------------------------------------------------------------------------------

     CUMULATIVE VOLUMES      L**3       RATES FOR THIS TIME STEP      L**3/T
     ------------------                 ------------------------

           IN:                                      IN:
           ---                                      ---
             STORAGE =        2521.4302               STORAGE =           0.1355
       CONSTANT HEAD =       3.4348E-02         CONSTANT HEAD =       4.7170E-06
                 MNW =        2518.8979                   MNW =           0.1354

            TOTAL IN =        5040.3623              TOTAL IN =           0.2709

          OUT:                                     OUT:
          ----                                     ----
             STORAGE =        2519.7019               STORAGE =           0.1354
       CONSTANT HEAD =       1.0775E-02         CONSTANT HEAD =       1.9943E-07
                 MNW =        2518.8979                   MNW =           0.1354

           TOTAL OUT =        5038.6108             TOTAL OUT =           0.2708

            IN - OUT =           1.7515              IN - OUT =       8.6755E-05

 PERCENT DISCREPANCY =           0.03     PERCENT DISCREPANCY =           0.03






          TIME SUMMARY AT END OF TIME STEP  14 IN STRESS PERIOD    1
                    SECONDS     MINUTES      HOURS       DAYS        YEARS
                    -----------------------------------------------------------
   TIME STEP LENGTH  2164.6      36.077     0.60128     2.50534E-02 6.85926E-05
 STRESS PERIOD TIME  17541.      292.34      4.8724     0.20302     5.55830E-04
         TOTAL TIME  17541.      292.34      4.8724     0.20302     5.55830E-04
1
 
 SOLVING FOR HEAD 
     3 CALLS TO PCG ROUTINE FOR TIME STEP  15 IN STRESS PERIOD    1
    16 TOTAL ITERATIONS

 HEAD/DRAWDOWN PRINTOUT FLAG = 0     TOTAL BUDGET PRINTOUT FLAG = 1
 CELL-BY-CELL FLOW TERM FLAG = 0
 REUSING PREVIOUS VALUES OF IOFLG

 SAVING SATURATED THICKNESS AND FLOW TERMS ON UNIT  333 FOR MT3DMS
 BY THE LINK-MT3DMS PACKAGE V6.3 AT TIME STEP   15, STRESS PERIOD    1

1
  VOLUMETRIC BUDGET FOR ENTIRE MODEL AT END OF TIME STEP 15 IN STRESS PERIOD   1
  ------------------------------------------------------------------------------

     CUMULATIVE VOLUMES      L**3       RATES FOR THIS TIME STEP      L**3/T
     ------------------                 ------------------------

           IN:                                      IN:
           ---                                      ---
             STORAGE =        2841.6765               STORAGE =           0.1345
       CONSTANT HEAD =       5.9644E-02         CONSTANT HEAD =       1.0624E-05
                 MNW =        2838.7749                   MNW =           0.1343

            TOTAL IN =        5680.5112              TOTAL IN =           0.2688

          OUT:                                     OUT:
          ----                                     ----
             STORAGE =        2839.7815               STORAGE =           0.1344
       CONSTANT HEAD =       1.1205E-02         CONSTANT HEAD =       1.8073E-07
                 MNW =        2838.7749                   MNW =           0.1343

           TOTAL OUT =        5678.5674             TOTAL OUT =           0.2688

            IN - OUT =           1.9438              IN - OUT =       8.0496E-05

 PERCENT DISCREPANCY =           0.03     PERCENT DISCREPANCY =           0.03






          TIME SUMMARY AT END OF TIME STEP  15 IN STRESS PERIOD    1
                    SECONDS     MINUTES      HOURS       DAYS        YEARS
                    -----------------------------------------------------------
   TIME STEP LENGTH  2381.1      39.685     0.66141     2.75588E-02 7.54518E-05
 STRESS PERIOD TIME  19922.      332.03      5.5338     0.23058     6.31282E-04
         TOTAL TIME  19922.      332.03      5.5338     0.23058     6.31282E-04
1
 
 SOLVING FOR HEAD 
     3 CALLS TO PCG ROUTINE FOR TIME STEP  16 IN STRESS PERIOD    1
    15 TOTAL ITERATIONS

 HEAD/DRAWDOWN PRINTOUT FLAG = 0     TOTAL BUDGET PRINTOUT FLAG = 1
 CELL-BY-CELL FLOW TERM FLAG = 0
 REUSING PREVIOUS VALUES OF IOFLG

 SAVING SATURATED THICKNESS AND FLOW TERMS ON UNIT  333 FOR MT3DMS
 BY THE LINK-MT3DMS PACKAGE V6.3 AT TIME STEP   16, STRESS PERIOD    1

1
  VOLUMETRIC BUDGET FOR ENTIRE MODEL AT END OF TIME STEP 16 IN STRESS PERIOD   1
  ------------------------------------------------------------------------------

     CUMULATIVE VOLUMES      L**3       RATES FOR THIS TIME STEP      L**3/T
     ------------------                 ------------------------

           IN:                                      IN:
           ---                                      ---
             STORAGE =        3191.3992               STORAGE =           0.1335
       CONSTANT HEAD =           0.1208         CONSTANT HEAD =       2.3335E-05
                 MNW =        3188.1169                   MNW =           0.1334

            TOTAL IN =        6379.6367              TOTAL IN =           0.2669

          OUT:                                     OUT:
          ----                                     ----
             STORAGE =        3189.3423               STORAGE =           0.1335
       CONSTANT HEAD =       1.1614E-02         CONSTANT HEAD =       1.5619E-07
                 MNW =        3188.1169                   MNW =           0.1334

           TOTAL OUT =        6377.4707             TOTAL OUT =           0.2668

            IN - OUT =           2.1660              IN - OUT =       8.4937E-05

 PERCENT DISCREPANCY =           0.03     PERCENT DISCREPANCY =           0.03






          TIME SUMMARY AT END OF TIME STEP  16 IN STRESS PERIOD    1
                    SECONDS     MINUTES      HOURS       DAYS        YEARS
                    -----------------------------------------------------------
   TIME STEP LENGTH  2619.2      43.653     0.72755     3.03147E-02 8.29970E-05
 STRESS PERIOD TIME  22541.      375.68      6.2614     0.26089     7.14279E-04
         TOTAL TIME  22541.      375.68      6.2614     0.26089     7.14279E-04
1
 
 SOLVING FOR HEAD 
     3 CALLS TO PCG ROUTINE FOR TIME STEP  17 IN STRESS PERIOD    1
    16 TOTAL ITERATIONS

 HEAD/DRAWDOWN PRINTOUT FLAG = 0     TOTAL BUDGET PRINTOUT FLAG = 1
 CELL-BY-CELL FLOW TERM FLAG = 0
 REUSING PREVIOUS VALUES OF IOFLG

 SAVING SATURATED THICKNESS AND FLOW TERMS ON UNIT  333 FOR MT3DMS
 BY THE LINK-MT3DMS PACKAGE V6.3 AT TIME STEP   17, STRESS PERIOD    1

1
  VOLUMETRIC BUDGET FOR ENTIRE MODEL AT END OF TIME STEP 17 IN STRESS PERIOD   1
  ------------------------------------------------------------------------------

     CUMULATIVE VOLUMES      L**3       RATES FOR THIS TIME STEP      L**3/T
     ------------------                 ------------------------

           IN:                                      IN:
           ---                                      ---
             STORAGE =        3573.3220               STORAGE =           0.1326
       CONSTANT HEAD =           0.2650         CONSTANT HEAD =       5.0054E-05
                 MNW =        3569.7334                   MNW =           0.1325

            TOTAL IN =        7143.3203              TOTAL IN =           0.2651

          OUT:                                     OUT:
          ----                                     ----
             STORAGE =        3571.1897               STORAGE =           0.1325
       CONSTANT HEAD =       1.2000E-02         CONSTANT HEAD =       1.3401E-07
                 MNW =        3569.7334                   MNW =           0.1325

           TOTAL OUT =        7140.9351             TOTAL OUT =           0.2650

            IN - OUT =           2.3853              IN - OUT =       7.6115E-05

 PERCENT DISCREPANCY =           0.03     PERCENT DISCREPANCY =           0.03






          TIME SUMMARY AT END OF TIME STEP  17 IN STRESS PERIOD    1
                    SECONDS     MINUTES      HOURS       DAYS        YEARS
                    -----------------------------------------------------------
   TIME STEP LENGTH  2881.1      48.018     0.80031     3.33461E-02 9.12967E-05
 STRESS PERIOD TIME  25422.      423.70      7.0617     0.29424     8.05575E-04
         TOTAL TIME  25422.      423.70      7.0617     0.29424     8.05575E-04
1
 
 SOLVING FOR HEAD 
     3 CALLS TO PCG ROUTINE FOR TIME STEP  18 IN STRESS PERIOD    1
    15 TOTAL ITERATIONS

 HEAD/DRAWDOWN PRINTOUT FLAG = 0     TOTAL BUDGET PRINTOUT FLAG = 1
 CELL-BY-CELL FLOW TERM FLAG = 0
 REUSING PREVIOUS VALUES OF IOFLG

 SAVING SATURATED THICKNESS AND FLOW TERMS ON UNIT  333 FOR MT3DMS
 BY THE LINK-MT3DMS PACKAGE V6.3 AT TIME STEP   18, STRESS PERIOD    1

1
  VOLUMETRIC BUDGET FOR ENTIRE MODEL AT END OF TIME STEP 18 IN STRESS PERIOD   1
  ------------------------------------------------------------------------------

     CUMULATIVE VOLUMES      L**3       RATES FOR THIS TIME STEP      L**3/T
     ------------------                 ------------------------

           IN:                                      IN:
           ---                                      ---
             STORAGE =        3990.4670               STORAGE =           0.1316
       CONSTANT HEAD =           0.5771         CONSTANT HEAD =       9.8476E-05
                 MNW =        3986.6970                   MNW =           0.1316

            TOTAL IN =        7977.7412              TOTAL IN =           0.2633

          OUT:                                     OUT:
          ----                                     ----
             STORAGE =        3988.4150               STORAGE =           0.1316
       CONSTANT HEAD =       1.2329E-02         CONSTANT HEAD =       1.0371E-07
                 MNW =        3986.6970                   MNW =           0.1316

           TOTAL OUT =        7975.1245             TOTAL OUT =           0.2632

            IN - OUT =           2.6167              IN - OUT =       7.3016E-05

 PERCENT DISCREPANCY =           0.03     PERCENT DISCREPANCY =           0.03






          TIME SUMMARY AT END OF TIME STEP  18 IN STRESS PERIOD    1
                    SECONDS     MINUTES      HOURS       DAYS        YEARS
                    -----------------------------------------------------------
   TIME STEP LENGTH  3169.2      52.820     0.88034     3.66807E-02 1.00426E-04
 STRESS PERIOD TIME  28591.      476.52      7.9420     0.33092     9.06002E-04
         TOTAL TIME  28591.      476.52      7.9420     0.33092     9.06002E-04
1
 
 SOLVING FOR HEAD 
     3 CALLS TO PCG ROUTINE FOR TIME STEP  19 IN STRESS PERIOD    1
    15 TOTAL ITERATIONS

 HEAD/DRAWDOWN PRINTOUT FLAG = 0     TOTAL BUDGET PRINTOUT FLAG = 1
 CELL-BY-CELL FLOW TERM FLAG = 0
 REUSING PREVIOUS VALUES OF IOFLG

 SAVING SATURATED THICKNESS AND FLOW TERMS ON UNIT  333 FOR MT3DMS
 BY THE LINK-MT3DMS PACKAGE V6.3 AT TIME STEP   19, STRESS PERIOD    1

1
  VOLUMETRIC BUDGET FOR ENTIRE MODEL AT END OF TIME STEP 19 IN STRESS PERIOD   1
  ------------------------------------------------------------------------------

     CUMULATIVE VOLUMES      L**3       RATES FOR THIS TIME STEP      L**3/T
     ------------------                 ------------------------

           IN:                                      IN:
           ---                                      ---
             STORAGE =        4446.0376               STORAGE =           0.1307
       CONSTANT HEAD =           1.2190         CONSTANT HEAD =       1.8415E-04
                 MNW =        4442.3701                   MNW =           0.1307

            TOTAL IN =        8889.6270              TOTAL IN =           0.2616

          OUT:                                     OUT:
          ----                                     ----
             STORAGE =        4444.3726               STORAGE =           0.1308
       CONSTANT HEAD =       1.2758E-02         CONSTANT HEAD =       1.2306E-07
                 MNW =        4442.3701                   MNW =           0.1307

           TOTAL OUT =        8886.7559             TOTAL OUT =           0.2615

            IN - OUT =           2.8711              IN - OUT =       7.3075E-05

 PERCENT DISCREPANCY =           0.03     PERCENT DISCREPANCY =           0.03






          TIME SUMMARY AT END OF TIME STEP  19 IN STRESS PERIOD    1
                    SECONDS     MINUTES      HOURS       DAYS        YEARS
                    -----------------------------------------------------------
   TIME STEP LENGTH  3486.1      58.102     0.96837     4.03488E-02 1.10469E-04
 STRESS PERIOD TIME  32077.      534.62      8.9104     0.37127     1.01647E-03
         TOTAL TIME  32077.      534.62      8.9104     0.37127     1.01647E-03
1
 
 SOLVING FOR HEAD 
     3 CALLS TO PCG ROUTINE FOR TIME STEP  20 IN STRESS PERIOD    1
    15 TOTAL ITERATIONS

 HEAD/DRAWDOWN PRINTOUT FLAG = 0     TOTAL BUDGET PRINTOUT FLAG = 1
 CELL-BY-CELL FLOW TERM FLAG = 0
 REUSING PREVIOUS VALUES OF IOFLG

 SAVING SATURATED THICKNESS AND FLOW TERMS ON UNIT  333 FOR MT3DMS
 BY THE LINK-MT3DMS PACKAGE V6.3 AT TIME STEP   20, STRESS PERIOD    1

1
  VOLUMETRIC BUDGET FOR ENTIRE MODEL AT END OF TIME STEP 20 IN STRESS PERIOD   1
  ------------------------------------------------------------------------------

     CUMULATIVE VOLUMES      L**3       RATES FOR THIS TIME STEP      L**3/T
     ------------------                 ------------------------

           IN:                                      IN:
           ---                                      ---
             STORAGE =        4943.3892               STORAGE =           0.1297
       CONSTANT HEAD =           2.4847         CONSTANT HEAD =       3.3006E-04
                 MNW =        4940.4302                   MNW =           0.1299

            TOTAL IN =        9886.3037              TOTAL IN =           0.2599

          OUT:                                     OUT:
          ----                                     ----
             STORAGE =        4942.7427               STORAGE =           0.1300
       CONSTANT HEAD =       1.3576E-02         CONSTANT HEAD =       2.1324E-07
                 MNW =        4940.4302                   MNW =           0.1299

           TOTAL OUT =        9883.1865             TOTAL OUT =           0.2598

            IN - OUT =           3.1172              IN - OUT =       6.4284E-05

 PERCENT DISCREPANCY =           0.03     PERCENT DISCREPANCY =           0.02






          TIME SUMMARY AT END OF TIME STEP  20 IN STRESS PERIOD    1
                    SECONDS     MINUTES      HOURS       DAYS        YEARS
                    -----------------------------------------------------------
   TIME STEP LENGTH  3834.8      63.913      1.0652     4.43837E-02 1.21516E-04
 STRESS PERIOD TIME  35912.      598.54      9.9756     0.41565     1.13799E-03
         TOTAL TIME  35912.      598.54      9.9756     0.41565     1.13799E-03
1
 
 SOLVING FOR HEAD 
     3 CALLS TO PCG ROUTINE FOR TIME STEP  21 IN STRESS PERIOD    1
    15 TOTAL ITERATIONS

 HEAD/DRAWDOWN PRINTOUT FLAG = 0     TOTAL BUDGET PRINTOUT FLAG = 1
 CELL-BY-CELL FLOW TERM FLAG = 0
 REUSING PREVIOUS VALUES OF IOFLG

 SAVING SATURATED THICKNESS AND FLOW TERMS ON UNIT  333 FOR MT3DMS
 BY THE LINK-MT3DMS PACKAGE V6.3 AT TIME STEP   21, STRESS PERIOD    1

1
  VOLUMETRIC BUDGET FOR ENTIRE MODEL AT END OF TIME STEP 21 IN STRESS PERIOD   1
  ------------------------------------------------------------------------------

     CUMULATIVE VOLUMES      L**3       RATES FOR THIS TIME STEP      L**3/T
     ------------------                 ------------------------

           IN:                                      IN:
           ---                                      ---
             STORAGE =        5486.0864               STORAGE =           0.1287
       CONSTANT HEAD =           4.8819         CONSTANT HEAD =       5.6829E-04
                 MNW =        5484.8999                   MNW =           0.1291

            TOTAL IN =       10975.8682              TOTAL IN =           0.2583

          OUT:                                     OUT:
          ----                                     ----
             STORAGE =        5487.5620               STORAGE =           0.1292
       CONSTANT HEAD =       1.4003E-02         CONSTANT HEAD =       1.0131E-07
                 MNW =        5484.8999                   MNW =           0.1291

           TOTAL OUT =       10972.4756             TOTAL OUT =           0.2582

            IN - OUT =           3.3926              IN - OUT =       6.5118E-05

 PERCENT DISCREPANCY =           0.03     PERCENT DISCREPANCY =           0.03






          TIME SUMMARY AT END OF TIME STEP  21 IN STRESS PERIOD    1
                    SECONDS     MINUTES      HOURS       DAYS        YEARS
                    -----------------------------------------------------------
   TIME STEP LENGTH  4218.2      70.304      1.1717     4.88221E-02 1.33668E-04
 STRESS PERIOD TIME  40130.      668.84      11.147     0.46447     1.27165E-03
         TOTAL TIME  40130.      668.84      11.147     0.46447     1.27165E-03
1
 
 SOLVING FOR HEAD 
     3 CALLS TO PCG ROUTINE FOR TIME STEP  22 IN STRESS PERIOD    1
    15 TOTAL ITERATIONS

 HEAD/DRAWDOWN PRINTOUT FLAG = 0     TOTAL BUDGET PRINTOUT FLAG = 1
 CELL-BY-CELL FLOW TERM FLAG = 0
 REUSING PREVIOUS VALUES OF IOFLG

 SAVING SATURATED THICKNESS AND FLOW TERMS ON UNIT  333 FOR MT3DMS
 BY THE LINK-MT3DMS PACKAGE V6.3 AT TIME STEP   22, STRESS PERIOD    1

1
  VOLUMETRIC BUDGET FOR ENTIRE MODEL AT END OF TIME STEP 22 IN STRESS PERIOD   1
  ------------------------------------------------------------------------------

     CUMULATIVE VOLUMES      L**3       RATES FOR THIS TIME STEP      L**3/T
     ------------------                 ------------------------

           IN:                                      IN:
           ---                                      ---
             STORAGE =        6077.6997               STORAGE =           0.1275
       CONSTANT HEAD =           9.2356         CONSTANT HEAD =       9.3830E-04
                 MNW =        6080.1875                   MNW =           0.1283

            TOTAL IN =       12167.1230              TOTAL IN =           0.2567

          OUT:                                     OUT:
          ----                                     ----
             STORAGE =        6083.2305               STORAGE =           0.1284
       CONSTANT HEAD =       1.5026E-02         CONSTANT HEAD =       2.2056E-07
                 MNW =        6080.1875                   MNW =           0.1283

           TOTAL OUT =       12163.4326             TOTAL OUT =           0.2567

            IN - OUT =           3.6904              IN - OUT =       6.4164E-05

 PERCENT DISCREPANCY =           0.03     PERCENT DISCREPANCY =           0.02






          TIME SUMMARY AT END OF TIME STEP  22 IN STRESS PERIOD    1
                    SECONDS     MINUTES      HOURS       DAYS        YEARS
                    -----------------------------------------------------------
   TIME STEP LENGTH  4640.0      77.334      1.2889     5.37043E-02 1.47034E-04
 STRESS PERIOD TIME  44770.      746.17      12.436     0.51818     1.41869E-03
         TOTAL TIME  44770.      746.17      12.436     0.51818     1.41869E-03
1
 
 SOLVING FOR HEAD 
     3 CALLS TO PCG ROUTINE FOR TIME STEP  23 IN STRESS PERIOD    1
    15 TOTAL ITERATIONS

 HEAD/DRAWDOWN PRINTOUT FLAG = 0     TOTAL BUDGET PRINTOUT FLAG = 1
 CELL-BY-CELL FLOW TERM FLAG = 0
 REUSING PREVIOUS VALUES OF IOFLG

 SAVING SATURATED THICKNESS AND FLOW TERMS ON UNIT  333 FOR MT3DMS
 BY THE LINK-MT3DMS PACKAGE V6.3 AT TIME STEP   23, STRESS PERIOD    1

1
  VOLUMETRIC BUDGET FOR ENTIRE MODEL AT END OF TIME STEP 23 IN STRESS PERIOD   1
  ------------------------------------------------------------------------------

     CUMULATIVE VOLUMES      L**3       RATES FOR THIS TIME STEP      L**3/T
     ------------------                 ------------------------

           IN:                                      IN:
           ---                                      ---
             STORAGE =        6721.7446               STORAGE =           0.1262
       CONSTANT HEAD =          16.8401         CONSTANT HEAD =       1.4899E-03
                 MNW =        6731.1133                   MNW =           0.1275

            TOTAL IN =       13469.6982              TOTAL IN =           0.2552

          OUT:                                     OUT:
          ----                                     ----
             STORAGE =        6734.5752               STORAGE =           0.1276
       CONSTANT HEAD =       1.6013E-02         CONSTANT HEAD =       1.9335E-07
                 MNW =        6731.1133                   MNW =           0.1275

           TOTAL OUT =       13465.7041             TOTAL OUT =           0.2551

            IN - OUT =           3.9941              IN - OUT =       5.9456E-05

 PERCENT DISCREPANCY =           0.03     PERCENT DISCREPANCY =           0.02






          TIME SUMMARY AT END OF TIME STEP  23 IN STRESS PERIOD    1
                    SECONDS     MINUTES      HOURS       DAYS        YEARS
                    -----------------------------------------------------------
   TIME STEP LENGTH  5104.1      85.068      1.4178     5.90747E-02 1.61738E-04
 STRESS PERIOD TIME  49874.      831.24      13.854     0.57725     1.58043E-03
         TOTAL TIME  49874.      831.24      13.854     0.57725     1.58043E-03
1
 
 SOLVING FOR HEAD 
     3 CALLS TO PCG ROUTINE FOR TIME STEP  24 IN STRESS PERIOD    1
    15 TOTAL ITERATIONS

 HEAD/DRAWDOWN PRINTOUT FLAG = 0     TOTAL BUDGET PRINTOUT FLAG = 1
 CELL-BY-CELL FLOW TERM FLAG = 0
 REUSING PREVIOUS VALUES OF IOFLG

 SAVING SATURATED THICKNESS AND FLOW TERMS ON UNIT  333 FOR MT3DMS
 BY THE LINK-MT3DMS PACKAGE V6.3 AT TIME STEP   24, STRESS PERIOD    1

1
  VOLUMETRIC BUDGET FOR ENTIRE MODEL AT END OF TIME STEP 24 IN STRESS PERIOD   1
  ------------------------------------------------------------------------------

     CUMULATIVE VOLUMES      L**3       RATES FOR THIS TIME STEP      L**3/T
     ------------------                 ------------------------

           IN:                                      IN:
           ---                                      ---
             STORAGE =        7421.5786               STORAGE =           0.1246
       CONSTANT HEAD =          29.6546         CONSTANT HEAD =       2.2824E-03
                 MNW =        7442.9551                   MNW =           0.1268

            TOTAL IN =       14894.1885              TOTAL IN =           0.2537

          OUT:                                     OUT:
          ----                                     ----
             STORAGE =        7446.8809               STORAGE =           0.1269
       CONSTANT HEAD =       1.8832E-02         CONSTANT HEAD =       5.0214E-07
                 MNW =        7442.9551                   MNW =           0.1268

           TOTAL OUT =       14889.8545             TOTAL OUT =           0.2537

            IN - OUT =           4.3340              IN - OUT =       6.0499E-05

 PERCENT DISCREPANCY =           0.03     PERCENT DISCREPANCY =           0.02






          TIME SUMMARY AT END OF TIME STEP  24 IN STRESS PERIOD    1
                    SECONDS     MINUTES      HOURS       DAYS        YEARS
                    -----------------------------------------------------------
   TIME STEP LENGTH  5614.5      93.574      1.5596     6.49822E-02 1.77911E-04
 STRESS PERIOD TIME  55489.      924.82      15.414     0.64223     1.75834E-03
         TOTAL TIME  55489.      924.82      15.414     0.64223     1.75834E-03
1
 
 SOLVING FOR HEAD 
     3 CALLS TO PCG ROUTINE FOR TIME STEP  25 IN STRESS PERIOD    1
    15 TOTAL ITERATIONS

 HEAD/DRAWDOWN PRINTOUT FLAG = 0     TOTAL BUDGET PRINTOUT FLAG = 1
 CELL-BY-CELL FLOW TERM FLAG = 0
 REUSING PREVIOUS VALUES OF IOFLG

 SAVING SATURATED THICKNESS AND FLOW TERMS ON UNIT  333 FOR MT3DMS
 BY THE LINK-MT3DMS PACKAGE V6.3 AT TIME STEP   25, STRESS PERIOD    1

1
  VOLUMETRIC BUDGET FOR ENTIRE MODEL AT END OF TIME STEP 25 IN STRESS PERIOD   1
  ------------------------------------------------------------------------------

     CUMULATIVE VOLUMES      L**3       RATES FOR THIS TIME STEP      L**3/T
     ------------------                 ------------------------

           IN:                                      IN:
           ---                                      ---
             STORAGE =        8180.1455               STORAGE =           0.1228
       CONSTANT HEAD =          50.5187         CONSTANT HEAD =       3.3783E-03
                 MNW =        8221.4922                   MNW =           0.1261

            TOTAL IN =       16452.1562              TOTAL IN =           0.2523

          OUT:                                     OUT:
          ----                                     ----
             STORAGE =        8225.9268               STORAGE =           0.1261
       CONSTANT HEAD =       2.4984E-02         CONSTANT HEAD =       9.9602E-07
                 MNW =        8221.4922                   MNW =           0.1261

           TOTAL OUT =       16447.4434             TOTAL OUT =           0.2522

            IN - OUT =           4.7129              IN - OUT =       6.1363E-05

 PERCENT DISCREPANCY =           0.03     PERCENT DISCREPANCY =           0.02






          TIME SUMMARY AT END OF TIME STEP  25 IN STRESS PERIOD    1
                    SECONDS     MINUTES      HOURS       DAYS        YEARS
                    -----------------------------------------------------------
   TIME STEP LENGTH  6175.9      102.93      1.7155     7.14804E-02 1.95703E-04
 STRESS PERIOD TIME  61665.      1027.7      17.129     0.71371     1.95404E-03
         TOTAL TIME  61665.      1027.7      17.129     0.71371     1.95404E-03
1
 
 SOLVING FOR HEAD 
     3 CALLS TO PCG ROUTINE FOR TIME STEP  26 IN STRESS PERIOD    1
    15 TOTAL ITERATIONS

 HEAD/DRAWDOWN PRINTOUT FLAG = 0     TOTAL BUDGET PRINTOUT FLAG = 1
 CELL-BY-CELL FLOW TERM FLAG = 0
 REUSING PREVIOUS VALUES OF IOFLG

 SAVING SATURATED THICKNESS AND FLOW TERMS ON UNIT  333 FOR MT3DMS
 BY THE LINK-MT3DMS PACKAGE V6.3 AT TIME STEP   26, STRESS PERIOD    1

1
  VOLUMETRIC BUDGET FOR ENTIRE MODEL AT END OF TIME STEP 26 IN STRESS PERIOD   1
  ------------------------------------------------------------------------------

     CUMULATIVE VOLUMES      L**3       RATES FOR THIS TIME STEP      L**3/T
     ------------------                 ------------------------

           IN:                                      IN:
           ---                                      ---
             STORAGE =        8999.7461               STORAGE =           0.1206
       CONSTANT HEAD =          83.4170         CONSTANT HEAD =       4.8426E-03
                 MNW =        9073.0508                   MNW =           0.1253

            TOTAL IN =       18156.2148              TOTAL IN =           0.2508

          OUT:                                     OUT:
          ----                                     ----
             STORAGE =        9078.0469               STORAGE =           0.1254
       CONSTANT HEAD =       3.9689E-02         CONSTANT HEAD =       2.1646E-06
                 MNW =        9073.0508                   MNW =           0.1253

           TOTAL OUT =       18151.1367             TOTAL OUT =           0.2508

            IN - OUT =           5.0781              IN - OUT =       5.3585E-05

 PERCENT DISCREPANCY =           0.03     PERCENT DISCREPANCY =           0.02






          TIME SUMMARY AT END OF TIME STEP  26 IN STRESS PERIOD    1
                    SECONDS     MINUTES      HOURS       DAYS        YEARS
                    -----------------------------------------------------------
   TIME STEP LENGTH  6793.5      113.22      1.8871     7.86284E-02 2.15273E-04
 STRESS PERIOD TIME  68458.      1141.0      19.016     0.79234     2.16931E-03
         TOTAL TIME  68458.      1141.0      19.016     0.79234     2.16931E-03
1
 
 SOLVING FOR HEAD 
     4 CALLS TO PCG ROUTINE FOR TIME STEP  27 IN STRESS PERIOD    1
    14 TOTAL ITERATIONS

 HEAD/DRAWDOWN PRINTOUT FLAG = 0     TOTAL BUDGET PRINTOUT FLAG = 1
 CELL-BY-CELL FLOW TERM FLAG = 0
 REUSING PREVIOUS VALUES OF IOFLG

 SAVING SATURATED THICKNESS AND FLOW TERMS ON UNIT  333 FOR MT3DMS
 BY THE LINK-MT3DMS PACKAGE V6.3 AT TIME STEP   27, STRESS PERIOD    1

1
  VOLUMETRIC BUDGET FOR ENTIRE MODEL AT END OF TIME STEP 27 IN STRESS PERIOD   1
  ------------------------------------------------------------------------------

     CUMULATIVE VOLUMES      L**3       RATES FOR THIS TIME STEP      L**3/T
     ------------------                 ------------------------

           IN:                                      IN:
           ---                                      ---
             STORAGE =        9882.0020               STORAGE =           0.1181
       CONSTANT HEAD =         133.7591         CONSTANT HEAD =       6.7367E-03
                 MNW =       10004.3555                   MNW =           0.1246

            TOTAL IN =       20020.1172              TOTAL IN =           0.2494

          OUT:                                     OUT:
          ----                                     ----
             STORAGE =       10010.1416               STORAGE =           0.1247
       CONSTANT HEAD =       7.5011E-02         CONSTANT HEAD =       4.7268E-06
                 MNW =       10004.3555                   MNW =           0.1246

           TOTAL OUT =       20014.5723             TOTAL OUT =           0.2494

            IN - OUT =           5.5449              IN - OUT =       6.2644E-05

 PERCENT DISCREPANCY =           0.03     PERCENT DISCREPANCY =           0.03






          TIME SUMMARY AT END OF TIME STEP  27 IN STRESS PERIOD    1
                    SECONDS     MINUTES      HOURS       DAYS        YEARS
                    -----------------------------------------------------------
   TIME STEP LENGTH  7472.8      124.55      2.0758     8.64913E-02 2.36800E-04
 STRESS PERIOD TIME  75931.      1265.5      21.092     0.87883     2.40611E-03
         TOTAL TIME  75931.      1265.5      21.092     0.87883     2.40611E-03
1
 
 SOLVING FOR HEAD 
     3 CALLS TO PCG ROUTINE FOR TIME STEP  28 IN STRESS PERIOD    1
    16 TOTAL ITERATIONS

 HEAD/DRAWDOWN PRINTOUT FLAG = 0     TOTAL BUDGET PRINTOUT FLAG = 1
 CELL-BY-CELL FLOW TERM FLAG = 0
 REUSING PREVIOUS VALUES OF IOFLG

 SAVING SATURATED THICKNESS AND FLOW TERMS ON UNIT  333 FOR MT3DMS
 BY THE LINK-MT3DMS PACKAGE V6.3 AT TIME STEP   28, STRESS PERIOD    1

1
  VOLUMETRIC BUDGET FOR ENTIRE MODEL AT END OF TIME STEP 28 IN STRESS PERIOD   1
  ------------------------------------------------------------------------------

     CUMULATIVE VOLUMES      L**3       RATES FOR THIS TIME STEP      L**3/T
     ------------------                 ------------------------

           IN:                                      IN:
           ---                                      ---
             STORAGE =       10827.1816               STORAGE =           0.1150
       CONSTANT HEAD =         208.6788         CONSTANT HEAD =       9.1142E-03
                 MNW =       11023.3916                   MNW =           0.1240

            TOTAL IN =       22059.2520              TOTAL IN =           0.2481

          OUT:                                     OUT:
          ----                                     ----
             STORAGE =       11029.7344               STORAGE =           0.1240
       CONSTANT HEAD =           0.1567         CONSTANT HEAD =       9.9327E-06
                 MNW =       11023.3916                   MNW =           0.1240

           TOTAL OUT =       22053.2832             TOTAL OUT =           0.2480

            IN - OUT =           5.9688              IN - OUT =       5.1737E-05

 PERCENT DISCREPANCY =           0.03     PERCENT DISCREPANCY =           0.02






          TIME SUMMARY AT END OF TIME STEP  28 IN STRESS PERIOD    1
                    SECONDS     MINUTES      HOURS       DAYS        YEARS
                    -----------------------------------------------------------
   TIME STEP LENGTH  8220.1      137.00      2.2834     9.51404E-02 2.60480E-04
 STRESS PERIOD TIME  84151.      1402.5      23.375     0.97397     2.66659E-03
         TOTAL TIME  84151.      1402.5      23.375     0.97397     2.66659E-03
1
 
 SOLVING FOR HEAD 
     3 CALLS TO PCG ROUTINE FOR TIME STEP  29 IN STRESS PERIOD    1
    15 TOTAL ITERATIONS

 HEAD/DRAWDOWN PRINTOUT FLAG = 0     TOTAL BUDGET PRINTOUT FLAG = 1
 CELL-BY-CELL FLOW TERM FLAG = 0
 REUSING PREVIOUS VALUES OF IOFLG

 SAVING SATURATED THICKNESS AND FLOW TERMS ON UNIT  333 FOR MT3DMS
 BY THE LINK-MT3DMS PACKAGE V6.3 AT TIME STEP   29, STRESS PERIOD    1

1
  VOLUMETRIC BUDGET FOR ENTIRE MODEL AT END OF TIME STEP 29 IN STRESS PERIOD   1
  ------------------------------------------------------------------------------

     CUMULATIVE VOLUMES      L**3       RATES FOR THIS TIME STEP      L**3/T
     ------------------                 ------------------------

           IN:                                      IN:
           ---                                      ---
             STORAGE =       11834.7188               STORAGE =           0.1114
       CONSTANT HEAD =         317.3073         CONSTANT HEAD =       1.2014E-02
                 MNW =       12138.2656                   MNW =           0.1233

            TOTAL IN =       24290.2910              TOTAL IN =           0.2467

          OUT:                                     OUT:
          ----                                     ----
             STORAGE =       12145.1963               STORAGE =           0.1234
       CONSTANT HEAD =           0.3379         CONSTANT HEAD =       2.0041E-05
                 MNW =       12138.2656                   MNW =           0.1233

           TOTAL OUT =       24283.7988             TOTAL OUT =           0.2467

            IN - OUT =           6.4922              IN - OUT =       5.7772E-05

 PERCENT DISCREPANCY =           0.03     PERCENT DISCREPANCY =           0.02






          TIME SUMMARY AT END OF TIME STEP  29 IN STRESS PERIOD    1
                    SECONDS     MINUTES      HOURS       DAYS        YEARS
                    -----------------------------------------------------------
   TIME STEP LENGTH  9042.1      150.70      2.5117     0.10465     2.86528E-04
 STRESS PERIOD TIME  93193.      1553.2      25.887      1.0786     2.95312E-03
         TOTAL TIME  93193.      1553.2      25.887      1.0786     2.95312E-03
1
 
 SOLVING FOR HEAD 
     4 CALLS TO PCG ROUTINE FOR TIME STEP  30 IN STRESS PERIOD    1
    14 TOTAL ITERATIONS

 HEAD/DRAWDOWN PRINTOUT FLAG = 0     TOTAL BUDGET PRINTOUT FLAG = 1
 CELL-BY-CELL FLOW TERM FLAG = 0
 REUSING PREVIOUS VALUES OF IOFLG

 SAVING SATURATED THICKNESS AND FLOW TERMS ON UNIT  333 FOR MT3DMS
 BY THE LINK-MT3DMS PACKAGE V6.3 AT TIME STEP   30, STRESS PERIOD    1

1
  VOLUMETRIC BUDGET FOR ENTIRE MODEL AT END OF TIME STEP 30 IN STRESS PERIOD   1
  ------------------------------------------------------------------------------

     CUMULATIVE VOLUMES      L**3       RATES FOR THIS TIME STEP      L**3/T
     ------------------                 ------------------------

           IN:                                      IN:
           ---                                      ---
             STORAGE =       12902.1963               STORAGE =           0.1073
       CONSTANT HEAD =         471.0411         CONSTANT HEAD =       1.5456E-02
                 MNW =       13357.8506                   MNW =           0.1226

            TOTAL IN =       26731.0879              TOTAL IN =           0.2454

          OUT:                                     OUT:
          ----                                     ----
             STORAGE =       13365.4287               STORAGE =           0.1227
       CONSTANT HEAD =           0.7248         CONSTANT HEAD =       3.8898E-05
                 MNW =       13357.8506                   MNW =           0.1226

           TOTAL OUT =       26724.0039             TOTAL OUT =           0.2453

            IN - OUT =           7.0840              IN - OUT =       5.9545E-05

 PERCENT DISCREPANCY =           0.03     PERCENT DISCREPANCY =           0.02






          TIME SUMMARY AT END OF TIME STEP  30 IN STRESS PERIOD    1
                    SECONDS     MINUTES      HOURS       DAYS        YEARS
                    -----------------------------------------------------------
   TIME STEP LENGTH  9946.4      165.77      2.7629     0.11512     3.15181E-04
 STRESS PERIOD TIME 1.03140E+05  1719.0      28.650      1.1937     3.26830E-03
         TOTAL TIME 1.03140E+05  1719.0      28.650      1.1937     3.26830E-03
1
 
 SOLVING FOR HEAD 
     3 CALLS TO PCG ROUTINE FOR TIME STEP  31 IN STRESS PERIOD    1
    15 TOTAL ITERATIONS

 HEAD/DRAWDOWN PRINTOUT FLAG = 0     TOTAL BUDGET PRINTOUT FLAG = 1
 CELL-BY-CELL FLOW TERM FLAG = 0
 REUSING PREVIOUS VALUES OF IOFLG

 SAVING SATURATED THICKNESS AND FLOW TERMS ON UNIT  333 FOR MT3DMS
 BY THE LINK-MT3DMS PACKAGE V6.3 AT TIME STEP   31, STRESS PERIOD    1

1
  VOLUMETRIC BUDGET FOR ENTIRE MODEL AT END OF TIME STEP 31 IN STRESS PERIOD   1
  ------------------------------------------------------------------------------

     CUMULATIVE VOLUMES      L**3       RATES FOR THIS TIME STEP      L**3/T
     ------------------                 ------------------------

           IN:                                      IN:
           ---                                      ---
             STORAGE =       14026.0205               STORAGE =           0.1027
       CONSTANT HEAD =         683.7287         CONSTANT HEAD =       1.9440E-02
                 MNW =       14692.4814                   MNW =           0.1220

            TOTAL IN =       29402.2305              TOTAL IN =           0.2441

          OUT:                                     OUT:
          ----                                     ----
             STORAGE =       14700.5986               STORAGE =           0.1220
       CONSTANT HEAD =           1.5251         CONSTANT HEAD =       7.3152E-05
                 MNW =       14692.4814                   MNW =           0.1220

           TOTAL OUT =       29394.6055             TOTAL OUT =           0.2441

            IN - OUT =           7.6250              IN - OUT =       4.9546E-05

 PERCENT DISCREPANCY =           0.03     PERCENT DISCREPANCY =           0.02






          TIME SUMMARY AT END OF TIME STEP  31 IN STRESS PERIOD    1
                    SECONDS     MINUTES      HOURS       DAYS        YEARS
                    -----------------------------------------------------------
   TIME STEP LENGTH  10941.      182.35      3.0392     0.12663     3.46699E-04
 STRESS PERIOD TIME 1.14081E+05  1901.3      31.689      1.3204     3.61500E-03
         TOTAL TIME 1.14081E+05  1901.3      31.689      1.3204     3.61500E-03
1
 
 SOLVING FOR HEAD 
     3 CALLS TO PCG ROUTINE FOR TIME STEP  32 IN STRESS PERIOD    1
    15 TOTAL ITERATIONS

 HEAD/DRAWDOWN PRINTOUT FLAG = 0     TOTAL BUDGET PRINTOUT FLAG = 1
 CELL-BY-CELL FLOW TERM FLAG = 0
 REUSING PREVIOUS VALUES OF IOFLG

 SAVING SATURATED THICKNESS AND FLOW TERMS ON UNIT  333 FOR MT3DMS
 BY THE LINK-MT3DMS PACKAGE V6.3 AT TIME STEP   32, STRESS PERIOD    1

1
  VOLUMETRIC BUDGET FOR ENTIRE MODEL AT END OF TIME STEP 32 IN STRESS PERIOD   1
  ------------------------------------------------------------------------------

     CUMULATIVE VOLUMES      L**3       RATES FOR THIS TIME STEP      L**3/T
     ------------------                 ------------------------

           IN:                                      IN:
           ---                                      ---
             STORAGE =       15200.0127               STORAGE =       9.7547E-02
       CONSTANT HEAD =         971.9166         CONSTANT HEAD =       2.3946E-02
                 MNW =       16152.9561                   MNW =           0.1214

            TOTAL IN =       32324.8848              TOTAL IN =           0.2428

          OUT:                                     OUT:
          ----                                     ----
             STORAGE =       16160.5303               STORAGE =           0.1213
       CONSTANT HEAD =           3.1179         CONSTANT HEAD =       1.3235E-04
                 MNW =       16152.9561                   MNW =           0.1214

           TOTAL OUT =       32316.6035             TOTAL OUT =           0.2428

            IN - OUT =           8.2812              IN - OUT =       5.4508E-05

 PERCENT DISCREPANCY =           0.03     PERCENT DISCREPANCY =           0.02






          TIME SUMMARY AT END OF TIME STEP  32 IN STRESS PERIOD    1
                    SECONDS     MINUTES      HOURS       DAYS        YEARS
                    -----------------------------------------------------------
   TIME STEP LENGTH  12035.      200.58      3.3431     0.13930     3.81369E-04
 STRESS PERIOD TIME 1.26116E+05  2101.9      35.032      1.4597     3.99637E-03
         TOTAL TIME 1.26116E+05  2101.9      35.032      1.4597     3.99637E-03
1
 
 SOLVING FOR HEAD 
     3 CALLS TO PCG ROUTINE FOR TIME STEP  33 IN STRESS PERIOD    1
    15 TOTAL ITERATIONS

 HEAD/DRAWDOWN PRINTOUT FLAG = 0     TOTAL BUDGET PRINTOUT FLAG = 1
 CELL-BY-CELL FLOW TERM FLAG = 0
 REUSING PREVIOUS VALUES OF IOFLG

 SAVING SATURATED THICKNESS AND FLOW TERMS ON UNIT  333 FOR MT3DMS
 BY THE LINK-MT3DMS PACKAGE V6.3 AT TIME STEP   33, STRESS PERIOD    1

1
  VOLUMETRIC BUDGET FOR ENTIRE MODEL AT END OF TIME STEP 33 IN STRESS PERIOD   1
  ------------------------------------------------------------------------------

     CUMULATIVE VOLUMES      L**3       RATES FOR THIS TIME STEP      L**3/T
     ------------------                 ------------------------

           IN:                                      IN:
           ---                                      ---
             STORAGE =       16416.8945               STORAGE =       9.1919E-02
       CONSTANT HEAD =        1354.9103         CONSTANT HEAD =       2.8930E-02
                 MNW =       17751.1797                   MNW =           0.1207

            TOTAL IN =       35522.9844              TOTAL IN =           0.2416

          OUT:                                     OUT:
          ----                                     ----
             STORAGE =       17756.7539               STORAGE =           0.1206
       CONSTANT HEAD =           6.1753         CONSTANT HEAD =       2.3095E-04
                 MNW =       17751.1797                   MNW =           0.1207

           TOTAL OUT =       35514.1094             TOTAL OUT =           0.2415

            IN - OUT =           8.8750              IN - OUT =       4.4882E-05

 PERCENT DISCREPANCY =           0.02     PERCENT DISCREPANCY =           0.02






          TIME SUMMARY AT END OF TIME STEP  33 IN STRESS PERIOD    1
                    SECONDS     MINUTES      HOURS       DAYS        YEARS
                    -----------------------------------------------------------
   TIME STEP LENGTH  13239.      220.64      3.6774     0.15322     4.19506E-04
 STRESS PERIOD TIME 1.39354E+05  2322.6      38.710      1.6129     4.41588E-03
         TOTAL TIME 1.39354E+05  2322.6      38.710      1.6129     4.41588E-03
1
 
 SOLVING FOR HEAD 
     4 CALLS TO PCG ROUTINE FOR TIME STEP  34 IN STRESS PERIOD    1
    14 TOTAL ITERATIONS

 HEAD/DRAWDOWN PRINTOUT FLAG = 0     TOTAL BUDGET PRINTOUT FLAG = 1
 CELL-BY-CELL FLOW TERM FLAG = 0
 REUSING PREVIOUS VALUES OF IOFLG

 SAVING SATURATED THICKNESS AND FLOW TERMS ON UNIT  333 FOR MT3DMS
 BY THE LINK-MT3DMS PACKAGE V6.3 AT TIME STEP   34, STRESS PERIOD    1

1
  VOLUMETRIC BUDGET FOR ENTIRE MODEL AT END OF TIME STEP 34 IN STRESS PERIOD   1
  ------------------------------------------------------------------------------

     CUMULATIVE VOLUMES      L**3       RATES FOR THIS TIME STEP      L**3/T
     ------------------                 ------------------------

           IN:                                      IN:
           ---                                      ---
             STORAGE =       17667.8945               STORAGE =       8.5906E-02
       CONSTANT HEAD =        1854.9216         CONSTANT HEAD =       3.4336E-02
                 MNW =       19499.9980                   MNW =           0.1201

            TOTAL IN =       39022.8125              TOTAL IN =           0.2403

          OUT:                                     OUT:
          ----                                     ----
             STORAGE =       19501.3672               STORAGE =           0.1198
       CONSTANT HEAD =          11.8324         CONSTANT HEAD =       3.8847E-04
                 MNW =       19499.9980                   MNW =           0.1201

           TOTAL OUT =       39013.1992             TOTAL OUT =           0.2403

            IN - OUT =           9.6133              IN - OUT =       5.0768E-05

 PERCENT DISCREPANCY =           0.02     PERCENT DISCREPANCY =           0.02






          TIME SUMMARY AT END OF TIME STEP  34 IN STRESS PERIOD    1
                    SECONDS     MINUTES      HOURS       DAYS        YEARS
                    -----------------------------------------------------------
   TIME STEP LENGTH  14562.      242.71      4.0451     0.16855     4.61457E-04
 STRESS PERIOD TIME 1.53917E+05  2565.3      42.755      1.7814     4.87733E-03
         TOTAL TIME 1.53917E+05  2565.3      42.755      1.7814     4.87733E-03
1
 
 SOLVING FOR HEAD 
     3 CALLS TO PCG ROUTINE FOR TIME STEP  35 IN STRESS PERIOD    1
    16 TOTAL ITERATIONS

 HEAD/DRAWDOWN PRINTOUT FLAG = 0     TOTAL BUDGET PRINTOUT FLAG = 1
 CELL-BY-CELL FLOW TERM FLAG = 0
 REUSING PREVIOUS VALUES OF IOFLG

 SAVING SATURATED THICKNESS AND FLOW TERMS ON UNIT  333 FOR MT3DMS
 BY THE LINK-MT3DMS PACKAGE V6.3 AT TIME STEP   35, STRESS PERIOD    1

1
  VOLUMETRIC BUDGET FOR ENTIRE MODEL AT END OF TIME STEP 35 IN STRESS PERIOD   1
  ------------------------------------------------------------------------------

     CUMULATIVE VOLUMES      L**3       RATES FOR THIS TIME STEP      L**3/T
     ------------------                 ------------------------

           IN:                                      IN:
           ---                                      ---
             STORAGE =       18942.1875               STORAGE =       7.9550E-02
       CONSTANT HEAD =        2496.8157         CONSTANT HEAD =       4.0072E-02
                 MNW =       21414.1875                   MNW =           0.1195

            TOTAL IN =       42853.1914              TOTAL IN =           0.2391

          OUT:                                     OUT:
          ----                                     ----
             STORAGE =       21406.7559               STORAGE =           0.1189
       CONSTANT HEAD =          21.9753         CONSTANT HEAD =       6.3319E-04
                 MNW =       21414.1875                   MNW =           0.1195

           TOTAL OUT =       42842.9180             TOTAL OUT =           0.2391

            IN - OUT =          10.2734              IN - OUT =       4.0904E-05

 PERCENT DISCREPANCY =           0.02     PERCENT DISCREPANCY =           0.02






          TIME SUMMARY AT END OF TIME STEP  35 IN STRESS PERIOD    1
                    SECONDS     MINUTES      HOURS       DAYS        YEARS
                    -----------------------------------------------------------
   TIME STEP LENGTH  16019.      266.98      4.4496     0.18540     5.07602E-04
 STRESS PERIOD TIME 1.69936E+05  2832.3      47.204      1.9668     5.38494E-03
         TOTAL TIME 1.69936E+05  2832.3      47.204      1.9668     5.38494E-03
1
 
 SOLVING FOR HEAD 
     4 CALLS TO PCG ROUTINE FOR TIME STEP  36 IN STRESS PERIOD    1
    14 TOTAL ITERATIONS

 HEAD/DRAWDOWN PRINTOUT FLAG = 0     TOTAL BUDGET PRINTOUT FLAG = 1
 CELL-BY-CELL FLOW TERM FLAG = 0
 REUSING PREVIOUS VALUES OF IOFLG

 SAVING SATURATED THICKNESS AND FLOW TERMS ON UNIT  333 FOR MT3DMS
 BY THE LINK-MT3DMS PACKAGE V6.3 AT TIME STEP   36, STRESS PERIOD    1

1
  VOLUMETRIC BUDGET FOR ENTIRE MODEL AT END OF TIME STEP 36 IN STRESS PERIOD   1
  ------------------------------------------------------------------------------

     CUMULATIVE VOLUMES      L**3       RATES FOR THIS TIME STEP      L**3/T
     ------------------                 ------------------------

           IN:                                      IN:
           ---                                      ---
             STORAGE =       20227.9844               STORAGE =       7.2971E-02
       CONSTANT HEAD =        3308.4739         CONSTANT HEAD =       4.6063E-02
                 MNW =       23508.2969                   MNW =           0.1188

            TOTAL IN =       47044.7539              TOTAL IN =           0.2379

          OUT:                                     OUT:
          ----                                     ----
             STORAGE =       23485.8223               STORAGE =           0.1180
       CONSTANT HEAD =          39.5554         CONSTANT HEAD =       9.9770E-04
                 MNW =       23508.2969                   MNW =           0.1188

           TOTAL OUT =       47033.6758             TOTAL OUT =           0.2378

            IN - OUT =          11.0781              IN - OUT =       4.5896E-05

 PERCENT DISCREPANCY =           0.02     PERCENT DISCREPANCY =           0.02






          TIME SUMMARY AT END OF TIME STEP  36 IN STRESS PERIOD    1
                    SECONDS     MINUTES      HOURS       DAYS        YEARS
                    -----------------------------------------------------------
   TIME STEP LENGTH  17621.      293.68      4.8946     0.20394     5.58363E-04
 STRESS PERIOD TIME 1.87556E+05  3125.9      52.099      2.1708     5.94330E-03
         TOTAL TIME 1.87556E+05  3125.9      52.099      2.1708     5.94330E-03
1
 
 SOLVING FOR HEAD 
     3 CALLS TO PCG ROUTINE FOR TIME STEP  37 IN STRESS PERIOD    1
    15 TOTAL ITERATIONS

 HEAD/DRAWDOWN PRINTOUT FLAG = 0     TOTAL BUDGET PRINTOUT FLAG = 1
 CELL-BY-CELL FLOW TERM FLAG = 0
 REUSING PREVIOUS VALUES OF IOFLG

 SAVING SATURATED THICKNESS AND FLOW TERMS ON UNIT  333 FOR MT3DMS
 BY THE LINK-MT3DMS PACKAGE V6.3 AT TIME STEP   37, STRESS PERIOD    1

1
  VOLUMETRIC BUDGET FOR ENTIRE MODEL AT END OF TIME STEP 37 IN STRESS PERIOD   1
  ------------------------------------------------------------------------------

     CUMULATIVE VOLUMES      L**3       RATES FOR THIS TIME STEP      L**3/T
     ------------------                 ------------------------

           IN:                                      IN:
           ---                                      ---
             STORAGE =       21512.3438               STORAGE =       6.6263E-02
       CONSTANT HEAD =        4320.0962         CONSTANT HEAD =       5.2192E-02
                 MNW =       25801.3281                   MNW =           0.1183

            TOTAL IN =       51633.7695              TOTAL IN =           0.2368

          OUT:                                     OUT:
          ----                                     ----
             STORAGE =       25751.5176               STORAGE =           0.1169
       CONSTANT HEAD =          69.1268         CONSTANT HEAD =       1.5257E-03
                 MNW =       25801.3281                   MNW =           0.1183

           TOTAL OUT =       51621.9727             TOTAL OUT =           0.2367

            IN - OUT =          11.7969              IN - OUT =       3.6865E-05

 PERCENT DISCREPANCY =           0.02     PERCENT DISCREPANCY =           0.02






          TIME SUMMARY AT END OF TIME STEP  37 IN STRESS PERIOD    1
                    SECONDS     MINUTES      HOURS       DAYS        YEARS
                    -----------------------------------------------------------
   TIME STEP LENGTH  19383.      323.04      5.3841     0.22434     6.14199E-04
 STRESS PERIOD TIME 2.06939E+05  3449.0      57.483      2.3951     6.55750E-03
         TOTAL TIME 2.06939E+05  3449.0      57.483      2.3951     6.55750E-03
1
 
 SOLVING FOR HEAD 
     3 CALLS TO PCG ROUTINE FOR TIME STEP  38 IN STRESS PERIOD    1
    15 TOTAL ITERATIONS

 HEAD/DRAWDOWN PRINTOUT FLAG = 0     TOTAL BUDGET PRINTOUT FLAG = 1
 CELL-BY-CELL FLOW TERM FLAG = 0
 REUSING PREVIOUS VALUES OF IOFLG

 SAVING SATURATED THICKNESS AND FLOW TERMS ON UNIT  333 FOR MT3DMS
 BY THE LINK-MT3DMS PACKAGE V6.3 AT TIME STEP   38, STRESS PERIOD    1

1
  VOLUMETRIC BUDGET FOR ENTIRE MODEL AT END OF TIME STEP 38 IN STRESS PERIOD   1
  ------------------------------------------------------------------------------

     CUMULATIVE VOLUMES      L**3       RATES FOR THIS TIME STEP      L**3/T
     ------------------                 ------------------------

           IN:                                      IN:
           ---                                      ---
             STORAGE =       22780.7344               STORAGE =       5.9490E-02
       CONSTANT HEAD =        5564.6880         CONSTANT HEAD =       5.8374E-02
                 MNW =       28311.4102                   MNW =           0.1177

            TOTAL IN =       56656.8320              TOTAL IN =           0.2356

          OUT:                                     OUT:
          ----                                     ----
             STORAGE =       28215.2305               STORAGE =           0.1156
       CONSTANT HEAD =         117.4024         CONSTANT HEAD =       2.2642E-03
                 MNW =       28311.4102                   MNW =           0.1177

           TOTAL OUT =       56644.0430             TOTAL OUT =           0.2355

            IN - OUT =          12.7891              IN - OUT =       4.6581E-05

 PERCENT DISCREPANCY =           0.02     PERCENT DISCREPANCY =           0.02






          TIME SUMMARY AT END OF TIME STEP  38 IN STRESS PERIOD    1
                    SECONDS     MINUTES      HOURS       DAYS        YEARS
                    -----------------------------------------------------------
   TIME STEP LENGTH  21321.      355.35      5.9225     0.24677     6.75619E-04
 STRESS PERIOD TIME 2.28260E+05  3804.3      63.405      2.6419     7.23312E-03
         TOTAL TIME 2.28260E+05  3804.3      63.405      2.6419     7.23312E-03
1
 
 SOLVING FOR HEAD 
     3 CALLS TO PCG ROUTINE FOR TIME STEP  39 IN STRESS PERIOD    1
    14 TOTAL ITERATIONS

 HEAD/DRAWDOWN PRINTOUT FLAG = 0     TOTAL BUDGET PRINTOUT FLAG = 1
 CELL-BY-CELL FLOW TERM FLAG = 0
 REUSING PREVIOUS VALUES OF IOFLG

 SAVING SATURATED THICKNESS AND FLOW TERMS ON UNIT  333 FOR MT3DMS
 BY THE LINK-MT3DMS PACKAGE V6.3 AT TIME STEP   39, STRESS PERIOD    1

1
  VOLUMETRIC BUDGET FOR ENTIRE MODEL AT END OF TIME STEP 39 IN STRESS PERIOD   1
  ------------------------------------------------------------------------------

     CUMULATIVE VOLUMES      L**3       RATES FOR THIS TIME STEP      L**3/T
     ------------------                 ------------------------

           IN:                                      IN:
           ---                                      ---
             STORAGE =       24019.6152               STORAGE =       5.2824E-02
       CONSTANT HEAD =        7077.3535         CONSTANT HEAD =       6.4498E-02
                 MNW =       31059.0176                   MNW =           0.1172

            TOTAL IN =       62155.9844              TOTAL IN =           0.2345

          OUT:                                     OUT:
          ----                                     ----
             STORAGE =       30889.1777               STORAGE =           0.1140
       CONSTANT HEAD =         193.9965         CONSTANT HEAD =       3.2659E-03
                 MNW =       31059.0176                   MNW =           0.1172

           TOTAL OUT =       62142.1914             TOTAL OUT =           0.2344

            IN - OUT =          13.7930              IN - OUT =       4.2886E-05

 PERCENT DISCREPANCY =           0.02     PERCENT DISCREPANCY =           0.02






          TIME SUMMARY AT END OF TIME STEP  39 IN STRESS PERIOD    1
                    SECONDS     MINUTES      HOURS       DAYS        YEARS
                    -----------------------------------------------------------
   TIME STEP LENGTH  23453.      390.88      6.5147     0.27145     7.43181E-04
 STRESS PERIOD TIME 2.51713E+05  4195.2      69.920      2.9133     7.97630E-03
         TOTAL TIME 2.51713E+05  4195.2      69.920      2.9133     7.97630E-03
1
 
 SOLVING FOR HEAD 
     3 CALLS TO PCG ROUTINE FOR TIME STEP  40 IN STRESS PERIOD    1
    15 TOTAL ITERATIONS

 HEAD/DRAWDOWN PRINTOUT FLAG = 0     TOTAL BUDGET PRINTOUT FLAG = 1
 CELL-BY-CELL FLOW TERM FLAG = 0
 REUSING PREVIOUS VALUES OF IOFLG

 SAVING SATURATED THICKNESS AND FLOW TERMS ON UNIT  333 FOR MT3DMS
 BY THE LINK-MT3DMS PACKAGE V6.3 AT TIME STEP   40, STRESS PERIOD    1

1
  VOLUMETRIC BUDGET FOR ENTIRE MODEL AT END OF TIME STEP 40 IN STRESS PERIOD   1
  ------------------------------------------------------------------------------

     CUMULATIVE VOLUMES      L**3       RATES FOR THIS TIME STEP      L**3/T
     ------------------                 ------------------------

           IN:                                      IN:
           ---                                      ---
             STORAGE =       25212.9883               STORAGE =       4.6258E-02
       CONSTANT HEAD =        8895.4668         CONSTANT HEAD =       7.0474E-02
                 MNW =       34067.0898                   MNW =           0.1166

            TOTAL IN =       68175.5469              TOTAL IN =           0.2333

          OUT:                                     OUT:
          ----                                     ----
             STORAGE =       33781.2539               STORAGE =           0.1121
       CONSTANT HEAD =         312.2841         CONSTANT HEAD =       4.5851E-03
                 MNW =       34067.0898                   MNW =           0.1166

           TOTAL OUT =       68160.6250             TOTAL OUT =           0.2333

            IN - OUT =          14.9219              IN - OUT =       4.3482E-05

 PERCENT DISCREPANCY =           0.02     PERCENT DISCREPANCY =           0.02






          TIME SUMMARY AT END OF TIME STEP  40 IN STRESS PERIOD    1
                    SECONDS     MINUTES      HOURS       DAYS        YEARS
                    -----------------------------------------------------------
   TIME STEP LENGTH  25798.      429.97      7.1662     0.29859     8.17499E-04
 STRESS PERIOD TIME 2.77511E+05  4625.2      77.086      3.2119     8.79379E-03
         TOTAL TIME 2.77511E+05  4625.2      77.086      3.2119     8.79379E-03
1
 
 SOLVING FOR HEAD 
     3 CALLS TO PCG ROUTINE FOR TIME STEP  41 IN STRESS PERIOD    1
    14 TOTAL ITERATIONS

 HEAD/DRAWDOWN PRINTOUT FLAG = 0     TOTAL BUDGET PRINTOUT FLAG = 1
 CELL-BY-CELL FLOW TERM FLAG = 0
 REUSING PREVIOUS VALUES OF IOFLG

 SAVING SATURATED THICKNESS AND FLOW TERMS ON UNIT  333 FOR MT3DMS
 BY THE LINK-MT3DMS PACKAGE V6.3 AT TIME STEP   41, STRESS PERIOD    1

1
  VOLUMETRIC BUDGET FOR ENTIRE MODEL AT END OF TIME STEP 41 IN STRESS PERIOD   1
  ------------------------------------------------------------------------------

     CUMULATIVE VOLUMES      L**3       RATES FOR THIS TIME STEP      L**3/T
     ------------------                 ------------------------

           IN:                                      IN:
           ---                                      ---
             STORAGE =       26348.2422               STORAGE =       4.0005E-02
       CONSTANT HEAD =       11057.9229         CONSTANT HEAD =       7.6202E-02
                 MNW =       37360.2773                   MNW =           0.1160

            TOTAL IN =       74766.4453              TOTAL IN =           0.2323

          OUT:                                     OUT:
          ----                                     ----
             STORAGE =       36899.8711               STORAGE =           0.1099
       CONSTANT HEAD =         490.3178         CONSTANT HEAD =       6.2736E-03
                 MNW =       37360.2773                   MNW =           0.1160

           TOTAL OUT =       74750.4688             TOTAL OUT =           0.2322

            IN - OUT =          15.9766              IN - OUT =       3.7327E-05

 PERCENT DISCREPANCY =           0.02     PERCENT DISCREPANCY =           0.02






          TIME SUMMARY AT END OF TIME STEP  41 IN STRESS PERIOD    1
                    SECONDS     MINUTES      HOURS       DAYS        YEARS
                    -----------------------------------------------------------
   TIME STEP LENGTH  28378.      472.97      7.8828     0.32845     8.99249E-04
 STRESS PERIOD TIME 3.05889E+05  5098.2      84.969      3.5404     9.69304E-03
         TOTAL TIME 3.05889E+05  5098.2      84.969      3.5404     9.69304E-03
1
 
 SOLVING FOR HEAD 
     3 CALLS TO PCG ROUTINE FOR TIME STEP  42 IN STRESS PERIOD    1
    15 TOTAL ITERATIONS

 HEAD/DRAWDOWN PRINTOUT FLAG = 0     TOTAL BUDGET PRINTOUT FLAG = 1
 CELL-BY-CELL FLOW TERM FLAG = 0
 REUSING PREVIOUS VALUES OF IOFLG

 SAVING SATURATED THICKNESS AND FLOW TERMS ON UNIT  333 FOR MT3DMS
 BY THE LINK-MT3DMS PACKAGE V6.3 AT TIME STEP   42, STRESS PERIOD    1

1
  VOLUMETRIC BUDGET FOR ENTIRE MODEL AT END OF TIME STEP 42 IN STRESS PERIOD   1
  ------------------------------------------------------------------------------

     CUMULATIVE VOLUMES      L**3       RATES FOR THIS TIME STEP      L**3/T
     ------------------                 ------------------------

           IN:                                      IN:
           ---                                      ---
             STORAGE =       27410.7422               STORAGE =       3.4037E-02
       CONSTANT HEAD =       13605.4307         CONSTANT HEAD =       8.1609E-02
                 MNW =       40966.1641                   MNW =           0.1155

            TOTAL IN =       81982.3359              TOTAL IN =           0.2312

          OUT:                                     OUT:
          ----                                     ----
             STORAGE =       40247.0469               STORAGE =           0.1072
       CONSTANT HEAD =         751.8464         CONSTANT HEAD =       8.3780E-03
                 MNW =       40966.1641                   MNW =           0.1155

           TOTAL OUT =       81965.0547             TOTAL OUT =           0.2311

            IN - OUT =          17.2812              IN - OUT =       4.1738E-05

 PERCENT DISCREPANCY =           0.02     PERCENT DISCREPANCY =           0.02






          TIME SUMMARY AT END OF TIME STEP  42 IN STRESS PERIOD    1
                    SECONDS     MINUTES      HOURS       DAYS        YEARS
                    -----------------------------------------------------------
   TIME STEP LENGTH  31216.      520.27      8.6711     0.36130     9.89173E-04
 STRESS PERIOD TIME 3.37105E+05  5618.4      93.640      3.9017     1.06822E-02
         TOTAL TIME 3.37105E+05  5618.4      93.640      3.9017     1.06822E-02
1
 
 SOLVING FOR HEAD 
     3 CALLS TO PCG ROUTINE FOR TIME STEP  43 IN STRESS PERIOD    1
    15 TOTAL ITERATIONS

 HEAD/DRAWDOWN PRINTOUT FLAG = 0     TOTAL BUDGET PRINTOUT FLAG = 1
 CELL-BY-CELL FLOW TERM FLAG = 0
 REUSING PREVIOUS VALUES OF IOFLG

 SAVING SATURATED THICKNESS AND FLOW TERMS ON UNIT  333 FOR MT3DMS
 BY THE LINK-MT3DMS PACKAGE V6.3 AT TIME STEP   43, STRESS PERIOD    1

1
  VOLUMETRIC BUDGET FOR ENTIRE MODEL AT END OF TIME STEP 43 IN STRESS PERIOD   1
  ------------------------------------------------------------------------------

     CUMULATIVE VOLUMES      L**3       RATES FOR THIS TIME STEP      L**3/T
     ------------------                 ------------------------

           IN:                                      IN:
           ---                                      ---
             STORAGE =       28388.9883               STORAGE =       2.8489E-02
       CONSTANT HEAD =       16579.7266         CONSTANT HEAD =       8.6619E-02
                 MNW =       44914.6719                   MNW =           0.1150

            TOTAL IN =       89883.3906              TOTAL IN =           0.2301

          OUT:                                     OUT:
          ----                                     ----
             STORAGE =       43822.8906               STORAGE =           0.1041
       CONSTANT HEAD =        1127.2966         CONSTANT HEAD =       1.0934E-02
                 MNW =       44914.6719                   MNW =           0.1150

           TOTAL OUT =       89864.8594             TOTAL OUT =           0.2301

            IN - OUT =          18.5312              IN - OUT =       3.6299E-05

 PERCENT DISCREPANCY =           0.02     PERCENT DISCREPANCY =           0.02






          TIME SUMMARY AT END OF TIME STEP  43 IN STRESS PERIOD    1
                    SECONDS     MINUTES      HOURS       DAYS        YEARS
                    -----------------------------------------------------------
   TIME STEP LENGTH  34338.      572.29      9.5382     0.39743     1.08809E-03
 STRESS PERIOD TIME 3.71443E+05  6190.7      103.18      4.2991     1.17703E-02
         TOTAL TIME 3.71443E+05  6190.7      103.18      4.2991     1.17703E-02
1
 
 SOLVING FOR HEAD 
     3 CALLS TO PCG ROUTINE FOR TIME STEP  44 IN STRESS PERIOD    1
    13 TOTAL ITERATIONS

 HEAD/DRAWDOWN PRINTOUT FLAG = 0     TOTAL BUDGET PRINTOUT FLAG = 1
 CELL-BY-CELL FLOW TERM FLAG = 0
 REUSING PREVIOUS VALUES OF IOFLG

 SAVING SATURATED THICKNESS AND FLOW TERMS ON UNIT  333 FOR MT3DMS
 BY THE LINK-MT3DMS PACKAGE V6.3 AT TIME STEP   44, STRESS PERIOD    1

1
  VOLUMETRIC BUDGET FOR ENTIRE MODEL AT END OF TIME STEP 44 IN STRESS PERIOD   1
  ------------------------------------------------------------------------------

     CUMULATIVE VOLUMES      L**3       RATES FOR THIS TIME STEP      L**3/T
     ------------------                 ------------------------

           IN:                                      IN:
           ---                                      ---
             STORAGE =       29274.3477               STORAGE =       2.3440E-02
       CONSTANT HEAD =       20023.9863         CONSTANT HEAD =       9.1187E-02
                 MNW =       49238.6758                   MNW =           0.1145

            TOTAL IN =       98537.0078              TOTAL IN =           0.2291

          OUT:                                     OUT:
          ----                                     ----
             STORAGE =       47622.9961               STORAGE =           0.1006
       CONSTANT HEAD =        1654.7744         CONSTANT HEAD =       1.3965E-02
                 MNW =       49238.6758                   MNW =           0.1145

           TOTAL OUT =       98516.4453             TOTAL OUT =           0.2291

            IN - OUT =          20.5625              IN - OUT =       5.3868E-05

 PERCENT DISCREPANCY =           0.02     PERCENT DISCREPANCY =           0.02






          TIME SUMMARY AT END OF TIME STEP  44 IN STRESS PERIOD    1
                    SECONDS     MINUTES      HOURS       DAYS        YEARS
                    -----------------------------------------------------------
   TIME STEP LENGTH  37771.      629.52      10.492     0.43717     1.19690E-03
 STRESS PERIOD TIME 4.09214E+05  6820.2      113.67      4.7363     1.29672E-02
         TOTAL TIME 4.09214E+05  6820.2      113.67      4.7363     1.29672E-02
1
 
 SOLVING FOR HEAD 
     3 CALLS TO PCG ROUTINE FOR TIME STEP  45 IN STRESS PERIOD    1
    15 TOTAL ITERATIONS

 HEAD/DRAWDOWN PRINTOUT FLAG = 0     TOTAL BUDGET PRINTOUT FLAG = 1
 CELL-BY-CELL FLOW TERM FLAG = 0
 REUSING PREVIOUS VALUES OF IOFLG

 SAVING SATURATED THICKNESS AND FLOW TERMS ON UNIT  333 FOR MT3DMS
 BY THE LINK-MT3DMS PACKAGE V6.3 AT TIME STEP   45, STRESS PERIOD    1

1
  VOLUMETRIC BUDGET FOR ENTIRE MODEL AT END OF TIME STEP 45 IN STRESS PERIOD   1
  ------------------------------------------------------------------------------

     CUMULATIVE VOLUMES      L**3       RATES FOR THIS TIME STEP      L**3/T
     ------------------                 ------------------------

           IN:                                      IN:
           ---                                      ---
             STORAGE =       30058.0430               STORAGE =       1.8862E-02
       CONSTANT HEAD =       23981.0156         CONSTANT HEAD =       9.5239E-02
                 MNW =       53974.3789                   MNW =           0.1140

            TOTAL IN =      108013.4375              TOTAL IN =           0.2281

          OUT:                                     OUT:
          ----                                     ----
             STORAGE =       51636.1445               STORAGE =       9.6590E-02
       CONSTANT HEAD =        2380.8521         CONSTANT HEAD =       1.7475E-02
                 MNW =       53974.3789                   MNW =           0.1140

           TOTAL OUT =      107991.3750             TOTAL OUT =           0.2280

            IN - OUT =          22.0625              IN - OUT =       3.6106E-05

 PERCENT DISCREPANCY =           0.02     PERCENT DISCREPANCY =           0.02






          TIME SUMMARY AT END OF TIME STEP  45 IN STRESS PERIOD    1
                    SECONDS     MINUTES      HOURS       DAYS        YEARS
                    -----------------------------------------------------------
   TIME STEP LENGTH  41548.      692.47      11.541     0.48088     1.31659E-03
 STRESS PERIOD TIME 4.50762E+05  7512.7      125.21      5.2172     1.42838E-02
         TOTAL TIME 4.50762E+05  7512.7      125.21      5.2172     1.42838E-02
1
 
 SOLVING FOR HEAD 
     3 CALLS TO PCG ROUTINE FOR TIME STEP  46 IN STRESS PERIOD    1
    14 TOTAL ITERATIONS

 HEAD/DRAWDOWN PRINTOUT FLAG = 0     TOTAL BUDGET PRINTOUT FLAG = 1
 CELL-BY-CELL FLOW TERM FLAG = 0
 REUSING PREVIOUS VALUES OF IOFLG

 SAVING SATURATED THICKNESS AND FLOW TERMS ON UNIT  333 FOR MT3DMS
 BY THE LINK-MT3DMS PACKAGE V6.3 AT TIME STEP   46, STRESS PERIOD    1

1
  VOLUMETRIC BUDGET FOR ENTIRE MODEL AT END OF TIME STEP 46 IN STRESS PERIOD   1
  ------------------------------------------------------------------------------

     CUMULATIVE VOLUMES      L**3       RATES FOR THIS TIME STEP      L**3/T
     ------------------                 ------------------------

           IN:                                      IN:
           ---                                      ---
             STORAGE =       30737.0449               STORAGE =       1.4857E-02
       CONSTANT HEAD =       28495.4707         CONSTANT HEAD =       9.8778E-02
                 MNW =       59161.3242                   MNW =           0.1135

            TOTAL IN =      118393.8438              TOTAL IN =           0.2271

          OUT:                                     OUT:
          ----                                     ----
             STORAGE =       55847.6992               STORAGE =       9.2150E-02
       CONSTANT HEAD =        3361.3948         CONSTANT HEAD =       2.1455E-02
                 MNW =       59161.3242                   MNW =           0.1135

           TOTAL OUT =      118370.4219             TOTAL OUT =           0.2271

            IN - OUT =          23.4219              IN - OUT =       2.9787E-05

 PERCENT DISCREPANCY =           0.02     PERCENT DISCREPANCY =           0.01






          TIME SUMMARY AT END OF TIME STEP  46 IN STRESS PERIOD    1
                    SECONDS     MINUTES      HOURS       DAYS        YEARS
                    -----------------------------------------------------------
   TIME STEP LENGTH  45703.      761.72      12.695     0.52897     1.44825E-03
 STRESS PERIOD TIME 4.96466E+05  8274.4      137.91      5.7461     1.57320E-02
         TOTAL TIME 4.96466E+05  8274.4      137.91      5.7461     1.57320E-02
1
 
 SOLVING FOR HEAD 
     3 CALLS TO PCG ROUTINE FOR TIME STEP  47 IN STRESS PERIOD    1
    15 TOTAL ITERATIONS

 HEAD/DRAWDOWN PRINTOUT FLAG = 0     TOTAL BUDGET PRINTOUT FLAG = 1
 CELL-BY-CELL FLOW TERM FLAG = 0
 REUSING PREVIOUS VALUES OF IOFLG

 SAVING SATURATED THICKNESS AND FLOW TERMS ON UNIT  333 FOR MT3DMS
 BY THE LINK-MT3DMS PACKAGE V6.3 AT TIME STEP   47, STRESS PERIOD    1

1
  VOLUMETRIC BUDGET FOR ENTIRE MODEL AT END OF TIME STEP 47 IN STRESS PERIOD   1
  ------------------------------------------------------------------------------

     CUMULATIVE VOLUMES      L**3       RATES FOR THIS TIME STEP      L**3/T
     ------------------                 ------------------------

           IN:                                      IN:
           ---                                      ---
             STORAGE =       31307.6406               STORAGE =       1.1350E-02
       CONSTANT HEAD =       33613.0625         CONSTANT HEAD =           0.1018
                 MNW =       64843.4219                   MNW =           0.1130

            TOTAL IN =      129764.1250              TOTAL IN =           0.2262

          OUT:                                     OUT:
          ----                                     ----
             STORAGE =       60233.2188               STORAGE =       8.7233E-02
       CONSTANT HEAD =        4662.1880         CONSTANT HEAD =       2.5874E-02
                 MNW =       64843.4219                   MNW =           0.1130

           TOTAL OUT =      129738.8281             TOTAL OUT =           0.2261

            IN - OUT =          25.2969              IN - OUT =       3.7298E-05

 PERCENT DISCREPANCY =           0.02     PERCENT DISCREPANCY =           0.02






          TIME SUMMARY AT END OF TIME STEP  47 IN STRESS PERIOD    1
                    SECONDS     MINUTES      HOURS       DAYS        YEARS
                    -----------------------------------------------------------
   TIME STEP LENGTH  50274.      837.89      13.965     0.58187     1.59307E-03
 STRESS PERIOD TIME 5.46739E+05  9112.3      151.87      6.3280     1.73251E-02
         TOTAL TIME 5.46739E+05  9112.3      151.87      6.3280     1.73251E-02
1
 
 SOLVING FOR HEAD 
     3 CALLS TO PCG ROUTINE FOR TIME STEP  48 IN STRESS PERIOD    1
    14 TOTAL ITERATIONS

 HEAD/DRAWDOWN PRINTOUT FLAG = 0     TOTAL BUDGET PRINTOUT FLAG = 1
 CELL-BY-CELL FLOW TERM FLAG = 0
 REUSING PREVIOUS VALUES OF IOFLG

 SAVING SATURATED THICKNESS AND FLOW TERMS ON UNIT  333 FOR MT3DMS
 BY THE LINK-MT3DMS PACKAGE V6.3 AT TIME STEP   48, STRESS PERIOD    1

1
  VOLUMETRIC BUDGET FOR ENTIRE MODEL AT END OF TIME STEP 48 IN STRESS PERIOD   1
  ------------------------------------------------------------------------------

     CUMULATIVE VOLUMES      L**3       RATES FOR THIS TIME STEP      L**3/T
     ------------------                 ------------------------

           IN:                                      IN:
           ---                                      ---
             STORAGE =       31773.2969               STORAGE =       8.4204E-03
       CONSTANT HEAD =       39379.9883         CONSTANT HEAD =           0.1043
                 MNW =       71068.1328                   MNW =           0.1126

            TOTAL IN =      142221.4219              TOTAL IN =           0.2253

          OUT:                                     OUT:
          ----                                     ----
             STORAGE =       64767.0586               STORAGE =       8.1985E-02
       CONSTANT HEAD =        6359.1855         CONSTANT HEAD =       3.0687E-02
                 MNW =       71068.1328                   MNW =           0.1126

           TOTAL OUT =      142194.3750             TOTAL OUT =           0.2252

            IN - OUT =          27.0469              IN - OUT =       3.1561E-05

 PERCENT DISCREPANCY =           0.02     PERCENT DISCREPANCY =           0.01






          TIME SUMMARY AT END OF TIME STEP  48 IN STRESS PERIOD    1
                    SECONDS     MINUTES      HOURS       DAYS        YEARS
                    -----------------------------------------------------------
   TIME STEP LENGTH  55301.      921.68      15.361     0.64006     1.75238E-03
 STRESS PERIOD TIME 6.02040E+05  10034.      167.23      6.9681     1.90775E-02
         TOTAL TIME 6.02040E+05  10034.      167.23      6.9681     1.90775E-02
1
 
 SOLVING FOR HEAD 
     3 CALLS TO PCG ROUTINE FOR TIME STEP  49 IN STRESS PERIOD    1
    14 TOTAL ITERATIONS

 HEAD/DRAWDOWN PRINTOUT FLAG = 0     TOTAL BUDGET PRINTOUT FLAG = 1
 CELL-BY-CELL FLOW TERM FLAG = 0
 REUSING PREVIOUS VALUES OF IOFLG

 SAVING SATURATED THICKNESS AND FLOW TERMS ON UNIT  333 FOR MT3DMS
 BY THE LINK-MT3DMS PACKAGE V6.3 AT TIME STEP   49, STRESS PERIOD    1

1
  VOLUMETRIC BUDGET FOR ENTIRE MODEL AT END OF TIME STEP 49 IN STRESS PERIOD   1
  ------------------------------------------------------------------------------

     CUMULATIVE VOLUMES      L**3       RATES FOR THIS TIME STEP      L**3/T
     ------------------                 ------------------------

           IN:                                      IN:
           ---                                      ---
             STORAGE =       32137.5820               STORAGE =       5.9885E-03
       CONSTANT HEAD =       45844.7734         CONSTANT HEAD =           0.1063
                 MNW =       77888.3281                   MNW =           0.1121

            TOTAL IN =      155870.6875              TOTAL IN =           0.2244

          OUT:                                     OUT:
          ----                                     ----
             STORAGE =       69414.0781               STORAGE =       7.6392E-02
       CONSTANT HEAD =        8538.9111         CONSTANT HEAD =       3.5832E-02
                 MNW =       77888.3281                   MNW =           0.1121

           TOTAL OUT =      155841.3125             TOTAL OUT =           0.2243

            IN - OUT =          29.3750              IN - OUT =       3.8236E-05

 PERCENT DISCREPANCY =           0.02     PERCENT DISCREPANCY =           0.02






          TIME SUMMARY AT END OF TIME STEP  49 IN STRESS PERIOD    1
                    SECONDS     MINUTES      HOURS       DAYS        YEARS
                    -----------------------------------------------------------
   TIME STEP LENGTH  60831.      1013.9      16.898     0.70406     1.92762E-03
 STRESS PERIOD TIME 6.62871E+05  11048.      184.13      7.6721     2.10051E-02
         TOTAL TIME 6.62871E+05  11048.      184.13      7.6721     2.10051E-02
1
 
 SOLVING FOR HEAD 
     3 CALLS TO PCG ROUTINE FOR TIME STEP  50 IN STRESS PERIOD    1
    14 TOTAL ITERATIONS

 HEAD/DRAWDOWN PRINTOUT FLAG = 0     TOTAL BUDGET PRINTOUT FLAG = 1
 CELL-BY-CELL FLOW TERM FLAG = 0
 REUSING PREVIOUS VALUES OF IOFLG

 SAVING SATURATED THICKNESS AND FLOW TERMS ON UNIT  333 FOR MT3DMS
 BY THE LINK-MT3DMS PACKAGE V6.3 AT TIME STEP   50, STRESS PERIOD    1

1
  VOLUMETRIC BUDGET FOR ENTIRE MODEL AT END OF TIME STEP 50 IN STRESS PERIOD   1
  ------------------------------------------------------------------------------

     CUMULATIVE VOLUMES      L**3       RATES FOR THIS TIME STEP      L**3/T
     ------------------                 ------------------------

           IN:                                      IN:
           ---                                      ---
             STORAGE =       32407.2539               STORAGE =       4.0301E-03
       CONSTANT HEAD =       53058.0898         CONSTANT HEAD =           0.1078
                 MNW =       85361.7344                   MNW =           0.1117

            TOTAL IN =      170827.0781              TOTAL IN =           0.2235

          OUT:                                     OUT:
          ----                                     ----
             STORAGE =       74135.3047               STORAGE =       7.0556E-02
       CONSTANT HEAD =       11298.3057         CONSTANT HEAD =       4.1238E-02
                 MNW =       85361.7344                   MNW =           0.1117

           TOTAL OUT =      170795.3438             TOTAL OUT =           0.2235

            IN - OUT =          31.7344              IN - OUT =       3.5390E-05

 PERCENT DISCREPANCY =           0.02     PERCENT DISCREPANCY =           0.02






          TIME SUMMARY AT END OF TIME STEP  50 IN STRESS PERIOD    1
                    SECONDS     MINUTES      HOURS       DAYS        YEARS
                    -----------------------------------------------------------
   TIME STEP LENGTH  66914.      1115.2      18.587     0.77447     2.12038E-03
 STRESS PERIOD TIME 7.29785E+05  12163.      202.72      8.4466     2.31255E-02
         TOTAL TIME 7.29785E+05  12163.      202.72      8.4466     2.31255E-02
1
 
 SOLVING FOR HEAD 
     3 CALLS TO PCG ROUTINE FOR TIME STEP  51 IN STRESS PERIOD    1
    13 TOTAL ITERATIONS

 HEAD/DRAWDOWN PRINTOUT FLAG = 0     TOTAL BUDGET PRINTOUT FLAG = 1
 CELL-BY-CELL FLOW TERM FLAG = 0
 REUSING PREVIOUS VALUES OF IOFLG

 SAVING SATURATED THICKNESS AND FLOW TERMS ON UNIT  333 FOR MT3DMS
 BY THE LINK-MT3DMS PACKAGE V6.3 AT TIME STEP   51, STRESS PERIOD    1

1
  VOLUMETRIC BUDGET FOR ENTIRE MODEL AT END OF TIME STEP 51 IN STRESS PERIOD   1
  ------------------------------------------------------------------------------

     CUMULATIVE VOLUMES      L**3       RATES FOR THIS TIME STEP      L**3/T
     ------------------                 ------------------------

           IN:                                      IN:
           ---                                      ---
             STORAGE =       32592.0195               STORAGE =       2.5102E-03
       CONSTANT HEAD =       61074.0391         CONSTANT HEAD =           0.1089
                 MNW =       93552.0000                   MNW =           0.1113

            TOTAL IN =      187218.0625              TOTAL IN =           0.2227

          OUT:                                     OUT:
          ----                                     ----
             STORAGE =       78886.7188               STORAGE =       6.4552E-02
       CONSTANT HEAD =       14744.8467         CONSTANT HEAD =       4.6824E-02
                 MNW =       93552.0000                   MNW =           0.1113

           TOTAL OUT =      187183.5625             TOTAL OUT =           0.2226

            IN - OUT =          34.5000              IN - OUT =       3.7476E-05

 PERCENT DISCREPANCY =           0.02     PERCENT DISCREPANCY =           0.02






          TIME SUMMARY AT END OF TIME STEP  51 IN STRESS PERIOD    1
                    SECONDS     MINUTES      HOURS       DAYS        YEARS
                    -----------------------------------------------------------
   TIME STEP LENGTH  73606.      1226.8      20.446     0.85192     2.33242E-03
 STRESS PERIOD TIME 8.03391E+05  13390.      223.16      9.2985     2.54579E-02
         TOTAL TIME 8.03391E+05  13390.      223.16      9.2985     2.54579E-02
1
 
 SOLVING FOR HEAD 
     3 CALLS TO PCG ROUTINE FOR TIME STEP  52 IN STRESS PERIOD    1
    14 TOTAL ITERATIONS

 HEAD/DRAWDOWN PRINTOUT FLAG = 0     TOTAL BUDGET PRINTOUT FLAG = 1
 CELL-BY-CELL FLOW TERM FLAG = 0
 REUSING PREVIOUS VALUES OF IOFLG

 SAVING SATURATED THICKNESS AND FLOW TERMS ON UNIT  333 FOR MT3DMS
 BY THE LINK-MT3DMS PACKAGE V6.3 AT TIME STEP   52, STRESS PERIOD    1

1
  VOLUMETRIC BUDGET FOR ENTIRE MODEL AT END OF TIME STEP 52 IN STRESS PERIOD   1
  ------------------------------------------------------------------------------

     CUMULATIVE VOLUMES      L**3       RATES FOR THIS TIME STEP      L**3/T
     ------------------                 ------------------------

           IN:                                      IN:
           ---                                      ---
             STORAGE =       32704.2734               STORAGE =       1.3864E-03
       CONSTANT HEAD =       69951.1094         CONSTANT HEAD =           0.1096
                 MNW =      102528.7031                   MNW =           0.1109

            TOTAL IN =      205184.0938              TOTAL IN =           0.2219

          OUT:                                     OUT:
          ----                                     ----
             STORAGE =       83622.1250               STORAGE =       5.8486E-02
       CONSTANT HEAD =       18995.5215         CONSTANT HEAD =       5.2499E-02
                 MNW =      102528.7031                   MNW =           0.1109

           TOTAL OUT =      205146.3438             TOTAL OUT =           0.2219

            IN - OUT =          37.7500              IN - OUT =       4.0025E-05

 PERCENT DISCREPANCY =           0.02     PERCENT DISCREPANCY =           0.02






          TIME SUMMARY AT END OF TIME STEP  52 IN STRESS PERIOD    1
                    SECONDS     MINUTES      HOURS       DAYS        YEARS
                    -----------------------------------------------------------
   TIME STEP LENGTH  80966.      1349.4      22.491     0.93711     2.56566E-03
 STRESS PERIOD TIME 8.84357E+05  14739.      245.65      10.236     2.80236E-02
         TOTAL TIME 8.84357E+05  14739.      245.65      10.236     2.80236E-02
1
 
 SOLVING FOR HEAD 
     3 CALLS TO PCG ROUTINE FOR TIME STEP  53 IN STRESS PERIOD    1
    14 TOTAL ITERATIONS

 HEAD/DRAWDOWN PRINTOUT FLAG = 0     TOTAL BUDGET PRINTOUT FLAG = 1
 CELL-BY-CELL FLOW TERM FLAG = 0
 REUSING PREVIOUS VALUES OF IOFLG

 SAVING SATURATED THICKNESS AND FLOW TERMS ON UNIT  333 FOR MT3DMS
 BY THE LINK-MT3DMS PACKAGE V6.3 AT TIME STEP   53, STRESS PERIOD    1

1
  VOLUMETRIC BUDGET FOR ENTIRE MODEL AT END OF TIME STEP 53 IN STRESS PERIOD   1
  ------------------------------------------------------------------------------

     CUMULATIVE VOLUMES      L**3       RATES FOR THIS TIME STEP      L**3/T
     ------------------                 ------------------------

           IN:                                      IN:
           ---                                      ---
             STORAGE =       32758.5645               STORAGE =       6.0958E-04
       CONSTANT HEAD =       79754.1641         CONSTANT HEAD =           0.1101
                 MNW =      112368.9062                   MNW =           0.1105

            TOTAL IN =      224881.6406              TOTAL IN =           0.2212

          OUT:                                     OUT:
          ----                                     ----
             STORAGE =       88294.3906               STORAGE =       5.2460E-02
       CONSTANT HEAD =       24177.0703         CONSTANT HEAD =       5.8179E-02
                 MNW =      112368.9062                   MNW =           0.1105

           TOTAL OUT =      224840.3750             TOTAL OUT =           0.2211

            IN - OUT =          41.2656              IN - OUT =       3.9667E-05

 PERCENT DISCREPANCY =           0.02     PERCENT DISCREPANCY =           0.02






          TIME SUMMARY AT END OF TIME STEP  53 IN STRESS PERIOD    1
                    SECONDS     MINUTES      HOURS       DAYS        YEARS
                    -----------------------------------------------------------
   TIME STEP LENGTH  89063.      1484.4      24.740      1.0308     2.82223E-03
 STRESS PERIOD TIME 9.73420E+05  16224.      270.39      11.266     3.08458E-02
         TOTAL TIME 9.73420E+05  16224.      270.39      11.266     3.08458E-02
1
 
 SOLVING FOR HEAD 
     3 CALLS TO PCG ROUTINE FOR TIME STEP  54 IN STRESS PERIOD    1
    15 TOTAL ITERATIONS

 HEAD/DRAWDOWN PRINTOUT FLAG = 0     TOTAL BUDGET PRINTOUT FLAG = 1
 CELL-BY-CELL FLOW TERM FLAG = 0
 REUSING PREVIOUS VALUES OF IOFLG

 SAVING SATURATED THICKNESS AND FLOW TERMS ON UNIT  333 FOR MT3DMS
 BY THE LINK-MT3DMS PACKAGE V6.3 AT TIME STEP   54, STRESS PERIOD    1

1
  VOLUMETRIC BUDGET FOR ENTIRE MODEL AT END OF TIME STEP 54 IN STRESS PERIOD   1
  ------------------------------------------------------------------------------

     CUMULATIVE VOLUMES      L**3       RATES FOR THIS TIME STEP      L**3/T
     ------------------                 ------------------------

           IN:                                      IN:
           ---                                      ---
             STORAGE =       32771.9180               STORAGE =       1.3632E-04
       CONSTANT HEAD =       90554.8594         CONSTANT HEAD =           0.1102
                 MNW =      123157.6719                   MNW =           0.1101

            TOTAL IN =      246484.4531              TOTAL IN =           0.2205

          OUT:                                     OUT:
          ----                                     ----
             STORAGE =       92856.7344               STORAGE =       4.6569E-02
       CONSTANT HEAD =       30425.3457         CONSTANT HEAD =       6.3778E-02
                 MNW =      123157.6719                   MNW =           0.1101

           TOTAL OUT =      246439.7500             TOTAL OUT =           0.2205

            IN - OUT =          44.7031              IN - OUT =       3.5048E-05

 PERCENT DISCREPANCY =           0.02     PERCENT DISCREPANCY =           0.02






          TIME SUMMARY AT END OF TIME STEP  54 IN STRESS PERIOD    1
                    SECONDS     MINUTES      HOURS       DAYS        YEARS
                    -----------------------------------------------------------
   TIME STEP LENGTH  97969.      1632.8      27.214      1.1339     3.10445E-03
 STRESS PERIOD TIME 1.07139E+06  17856.      297.61      12.400     3.39503E-02
         TOTAL TIME 1.07139E+06  17856.      297.61      12.400     3.39503E-02
1
 
 SOLVING FOR HEAD 
     3 CALLS TO PCG ROUTINE FOR TIME STEP  55 IN STRESS PERIOD    1
    14 TOTAL ITERATIONS

 HEAD/DRAWDOWN PRINTOUT FLAG = 0     TOTAL BUDGET PRINTOUT FLAG = 1
 CELL-BY-CELL FLOW TERM FLAG = 0
 REUSING PREVIOUS VALUES OF IOFLG

 SAVING SATURATED THICKNESS AND FLOW TERMS ON UNIT  333 FOR MT3DMS
 BY THE LINK-MT3DMS PACKAGE V6.3 AT TIME STEP   55, STRESS PERIOD    1

1
  VOLUMETRIC BUDGET FOR ENTIRE MODEL AT END OF TIME STEP 55 IN STRESS PERIOD   1
  ------------------------------------------------------------------------------

     CUMULATIVE VOLUMES      L**3       RATES FOR THIS TIME STEP      L**3/T
     ------------------                 ------------------------

           IN:                                      IN:
           ---                                      ---
             STORAGE =       32771.9258               STORAGE =       8.3769E-08
       CONSTANT HEAD =      102434.5547         CONSTANT HEAD =           0.1102
                 MNW =      134987.6562                   MNW =           0.1098

            TOTAL IN =      270194.1250              TOTAL IN =           0.2200

          OUT:                                     OUT:
          ----                                     ----
             STORAGE =       97274.6875               STORAGE =       4.0996E-02
       CONSTANT HEAD =       37883.5938         CONSTANT HEAD =       6.9208E-02
                 MNW =      134987.6562                   MNW =           0.1098

           TOTAL OUT =      270145.9375             TOTAL OUT =           0.2200

            IN - OUT =          48.1875              IN - OUT =       3.2485E-05

 PERCENT DISCREPANCY =           0.02     PERCENT DISCREPANCY =           0.01






          TIME SUMMARY AT END OF TIME STEP  55 IN STRESS PERIOD    1
                    SECONDS     MINUTES      HOURS       DAYS        YEARS
                    -----------------------------------------------------------
   TIME STEP LENGTH 1.07766E+05  1796.1      29.935      1.2473     3.41490E-03
 STRESS PERIOD TIME 1.17915E+06  19653.      327.54      13.648     3.73652E-02
         TOTAL TIME 1.17915E+06  19653.      327.54      13.648     3.73652E-02
1
 
 SOLVING FOR HEAD 
     3 CALLS TO PCG ROUTINE FOR TIME STEP  56 IN STRESS PERIOD    1
    14 TOTAL ITERATIONS

 HEAD/DRAWDOWN PRINTOUT FLAG = 0     TOTAL BUDGET PRINTOUT FLAG = 1
 CELL-BY-CELL FLOW TERM FLAG = 0
 REUSING PREVIOUS VALUES OF IOFLG

 SAVING SATURATED THICKNESS AND FLOW TERMS ON UNIT  333 FOR MT3DMS
 BY THE LINK-MT3DMS PACKAGE V6.3 AT TIME STEP   56, STRESS PERIOD    1

1
  VOLUMETRIC BUDGET FOR ENTIRE MODEL AT END OF TIME STEP 56 IN STRESS PERIOD   1
  ------------------------------------------------------------------------------

     CUMULATIVE VOLUMES      L**3       RATES FOR THIS TIME STEP      L**3/T
     ------------------                 ------------------------

           IN:                                      IN:
           ---                                      ---
             STORAGE =       32771.9258               STORAGE =           0.0000
       CONSTANT HEAD =      115484.6250         CONSTANT HEAD =           0.1101
                 MNW =      147962.1094                   MNW =           0.1094

            TOTAL IN =      296218.6562              TOTAL IN =           0.2195

          OUT:                                     OUT:
          ----                                     ----
             STORAGE =      101501.7578               STORAGE =       3.5659E-02
       CONSTANT HEAD =       46703.0703         CONSTANT HEAD =       7.4399E-02
                 MNW =      147962.1094                   MNW =           0.1094

           TOTAL OUT =      296166.9375             TOTAL OUT =           0.2195

            IN - OUT =          51.7188              IN - OUT =       2.9713E-05

 PERCENT DISCREPANCY =           0.02     PERCENT DISCREPANCY =           0.01






          TIME SUMMARY AT END OF TIME STEP  56 IN STRESS PERIOD    1
                    SECONDS     MINUTES      HOURS       DAYS        YEARS
                    -----------------------------------------------------------
   TIME STEP LENGTH 1.18543E+05  1975.7      32.928      1.3720     3.75639E-03
 STRESS PERIOD TIME 1.29770E+06  21628.      360.47      15.020     4.11215E-02
         TOTAL TIME 1.29770E+06  21628.      360.47      15.020     4.11215E-02
1
 
 SOLVING FOR HEAD 
     3 CALLS TO PCG ROUTINE FOR TIME STEP  57 IN STRESS PERIOD    1
    14 TOTAL ITERATIONS

 HEAD/DRAWDOWN PRINTOUT FLAG = 0     TOTAL BUDGET PRINTOUT FLAG = 1
 CELL-BY-CELL FLOW TERM FLAG = 0
 REUSING PREVIOUS VALUES OF IOFLG

 SAVING SATURATED THICKNESS AND FLOW TERMS ON UNIT  333 FOR MT3DMS
 BY THE LINK-MT3DMS PACKAGE V6.3 AT TIME STEP   57, STRESS PERIOD    1

1
  VOLUMETRIC BUDGET FOR ENTIRE MODEL AT END OF TIME STEP 57 IN STRESS PERIOD   1
  ------------------------------------------------------------------------------

     CUMULATIVE VOLUMES      L**3       RATES FOR THIS TIME STEP      L**3/T
     ------------------                 ------------------------

           IN:                                      IN:
           ---                                      ---
             STORAGE =       32771.9258               STORAGE =           0.0000
       CONSTANT HEAD =      129809.0391         CONSTANT HEAD =           0.1099
                 MNW =      162194.5781                   MNW =           0.1091

            TOTAL IN =      324775.5312              TOTAL IN =           0.2190

          OUT:                                     OUT:
          ----                                     ----
             STORAGE =      105484.5234               STORAGE =       3.0543E-02
       CONSTANT HEAD =       57041.3398         CONSTANT HEAD =       7.9283E-02
                 MNW =      162194.5781                   MNW =           0.1091

           TOTAL OUT =      324720.4375             TOTAL OUT =           0.2190

            IN - OUT =          55.0938              IN - OUT =       2.5958E-05

 PERCENT DISCREPANCY =           0.02     PERCENT DISCREPANCY =           0.01






          TIME SUMMARY AT END OF TIME STEP  57 IN STRESS PERIOD    1
                    SECONDS     MINUTES      HOURS       DAYS        YEARS
                    -----------------------------------------------------------
   TIME STEP LENGTH 1.30397E+05  2173.3      36.221      1.5092     4.13202E-03
 STRESS PERIOD TIME 1.42809E+06  23802.      396.69      16.529     4.52536E-02
         TOTAL TIME 1.42809E+06  23802.      396.69      16.529     4.52536E-02
1
 
 SOLVING FOR HEAD 
     3 CALLS TO PCG ROUTINE FOR TIME STEP  58 IN STRESS PERIOD    1
    12 TOTAL ITERATIONS

 HEAD/DRAWDOWN PRINTOUT FLAG = 0     TOTAL BUDGET PRINTOUT FLAG = 1
 CELL-BY-CELL FLOW TERM FLAG = 0
 REUSING PREVIOUS VALUES OF IOFLG

 SAVING SATURATED THICKNESS AND FLOW TERMS ON UNIT  333 FOR MT3DMS
 BY THE LINK-MT3DMS PACKAGE V6.3 AT TIME STEP   58, STRESS PERIOD    1

1
  VOLUMETRIC BUDGET FOR ENTIRE MODEL AT END OF TIME STEP 58 IN STRESS PERIOD   1
  ------------------------------------------------------------------------------

     CUMULATIVE VOLUMES      L**3       RATES FOR THIS TIME STEP      L**3/T
     ------------------                 ------------------------

           IN:                                      IN:
           ---                                      ---
             STORAGE =       32771.9258               STORAGE =           0.0000
       CONSTANT HEAD =      145526.4688         CONSTANT HEAD =           0.1096
                 MNW =      177809.5938                   MNW =           0.1089

            TOTAL IN =      356108.0000              TOTAL IN =           0.2184

          OUT:                                     OUT:
          ----                                     ----
             STORAGE =      109176.0312               STORAGE =       2.5736E-02
       CONSTANT HEAD =       69061.3594         CONSTANT HEAD =       8.3800E-02
                 MNW =      177809.5938                   MNW =           0.1089

           TOTAL OUT =      356047.0000             TOTAL OUT =           0.2184

            IN - OUT =          61.0000              IN - OUT =       4.1097E-05

 PERCENT DISCREPANCY =           0.02     PERCENT DISCREPANCY =           0.02






          TIME SUMMARY AT END OF TIME STEP  58 IN STRESS PERIOD    1
                    SECONDS     MINUTES      HOURS       DAYS        YEARS
                    -----------------------------------------------------------
   TIME STEP LENGTH 1.43436E+05  2390.6      39.843      1.6601     4.54523E-03
 STRESS PERIOD TIME 1.57153E+06  26192.      436.54      18.189     4.97988E-02
         TOTAL TIME 1.57153E+06  26192.      436.54      18.189     4.97988E-02
1
 
 SOLVING FOR HEAD 
     3 CALLS TO PCG ROUTINE FOR TIME STEP  59 IN STRESS PERIOD    1
    12 TOTAL ITERATIONS

 HEAD/DRAWDOWN PRINTOUT FLAG = 0     TOTAL BUDGET PRINTOUT FLAG = 1
 CELL-BY-CELL FLOW TERM FLAG = 0
 REUSING PREVIOUS VALUES OF IOFLG

 SAVING SATURATED THICKNESS AND FLOW TERMS ON UNIT  333 FOR MT3DMS
 BY THE LINK-MT3DMS PACKAGE V6.3 AT TIME STEP   59, STRESS PERIOD    1

1
  VOLUMETRIC BUDGET FOR ENTIRE MODEL AT END OF TIME STEP 59 IN STRESS PERIOD   1
  ------------------------------------------------------------------------------

     CUMULATIVE VOLUMES      L**3       RATES FOR THIS TIME STEP      L**3/T
     ------------------                 ------------------------

           IN:                                      IN:
           ---                                      ---
             STORAGE =       32771.9258               STORAGE =           0.0000
       CONSTANT HEAD =      162768.9531         CONSTANT HEAD =           0.1093
                 MNW =      194946.6094                   MNW =           0.1086

            TOTAL IN =      390487.5000              TOTAL IN =           0.2179

          OUT:                                     OUT:
          ----                                     ----
             STORAGE =      112540.0703               STORAGE =       2.1321E-02
       CONSTANT HEAD =       82932.6562         CONSTANT HEAD =       8.7915E-02
                 MNW =      194946.6094                   MNW =           0.1086

           TOTAL OUT =      390419.3438             TOTAL OUT =           0.2178

            IN - OUT =          68.1562              IN - OUT =       4.5314E-05

 PERCENT DISCREPANCY =           0.02     PERCENT DISCREPANCY =           0.02






          TIME SUMMARY AT END OF TIME STEP  59 IN STRESS PERIOD    1
                    SECONDS     MINUTES      HOURS       DAYS        YEARS
                    -----------------------------------------------------------
   TIME STEP LENGTH 1.57780E+05  2629.7      43.828      1.8262     4.99975E-03
 STRESS PERIOD TIME 1.72931E+06  28822.      480.36      20.015     5.47985E-02
         TOTAL TIME 1.72931E+06  28822.      480.36      20.015     5.47985E-02
1
 
 SOLVING FOR HEAD 
     3 CALLS TO PCG ROUTINE FOR TIME STEP  60 IN STRESS PERIOD    1
    12 TOTAL ITERATIONS

 HEAD/DRAWDOWN PRINTOUT FLAG = 0     TOTAL BUDGET PRINTOUT FLAG = 1
 CELL-BY-CELL FLOW TERM FLAG = 0
 REUSING PREVIOUS VALUES OF IOFLG

 SAVING SATURATED THICKNESS AND FLOW TERMS ON UNIT  333 FOR MT3DMS
 BY THE LINK-MT3DMS PACKAGE V6.3 AT TIME STEP   60, STRESS PERIOD    1

1
  VOLUMETRIC BUDGET FOR ENTIRE MODEL AT END OF TIME STEP 60 IN STRESS PERIOD   1
  ------------------------------------------------------------------------------

     CUMULATIVE VOLUMES      L**3       RATES FOR THIS TIME STEP      L**3/T
     ------------------                 ------------------------

           IN:                                      IN:
           ---                                      ---
             STORAGE =       32771.9258               STORAGE =           0.0000
       CONSTANT HEAD =      181683.9062         CONSTANT HEAD =           0.1090
                 MNW =      213758.4844                   MNW =           0.1084

            TOTAL IN =      428214.3125              TOTAL IN =           0.2174

          OUT:                                     OUT:
          ----                                     ----
             STORAGE =      115549.4219               STORAGE =       1.7339E-02
       CONSTANT HEAD =       98828.7812         CONSTANT HEAD =       9.1590E-02
                 MNW =      213758.4844                   MNW =           0.1084

           TOTAL OUT =      428136.6875             TOTAL OUT =           0.2173

            IN - OUT =          77.6250              IN - OUT =       5.4568E-05

 PERCENT DISCREPANCY =           0.02     PERCENT DISCREPANCY =           0.03






          TIME SUMMARY AT END OF TIME STEP  60 IN STRESS PERIOD    1
                    SECONDS     MINUTES      HOURS       DAYS        YEARS
                    -----------------------------------------------------------
   TIME STEP LENGTH 1.73558E+05  2892.6      48.211      2.0088     5.49973E-03
 STRESS PERIOD TIME 1.90287E+06  31714.      528.57      22.024     6.02983E-02
         TOTAL TIME 1.90287E+06  31714.      528.57      22.024     6.02983E-02
1
 
 SOLVING FOR HEAD 
     3 CALLS TO PCG ROUTINE FOR TIME STEP  61 IN STRESS PERIOD    1
    12 TOTAL ITERATIONS

 HEAD/DRAWDOWN PRINTOUT FLAG = 0     TOTAL BUDGET PRINTOUT FLAG = 1
 CELL-BY-CELL FLOW TERM FLAG = 0
 REUSING PREVIOUS VALUES OF IOFLG

 SAVING SATURATED THICKNESS AND FLOW TERMS ON UNIT  333 FOR MT3DMS
 BY THE LINK-MT3DMS PACKAGE V6.3 AT TIME STEP   61, STRESS PERIOD    1

1
  VOLUMETRIC BUDGET FOR ENTIRE MODEL AT END OF TIME STEP 61 IN STRESS PERIOD   1
  ------------------------------------------------------------------------------

     CUMULATIVE VOLUMES      L**3       RATES FOR THIS TIME STEP      L**3/T
     ------------------                 ------------------------

           IN:                                      IN:
           ---                                      ---
             STORAGE =       32771.9258               STORAGE =           0.0000
       CONSTANT HEAD =      202436.3594         CONSTANT HEAD =           0.1087
                 MNW =      234414.4219                   MNW =           0.1082

            TOTAL IN =      469622.7188              TOTAL IN =           0.2169

          OUT:                                     OUT:
          ----                                     ----
             STORAGE =      118191.6328               STORAGE =       1.3840E-02
       CONSTANT HEAD =      116930.1719         CONSTANT HEAD =       9.4814E-02
                 MNW =      234414.4219                   MNW =           0.1082

           TOTAL OUT =      469536.2188             TOTAL OUT =           0.2168

            IN - OUT =          86.5000              IN - OUT =       4.6328E-05

 PERCENT DISCREPANCY =           0.02     PERCENT DISCREPANCY =           0.02






          TIME SUMMARY AT END OF TIME STEP  61 IN STRESS PERIOD    1
                    SECONDS     MINUTES      HOURS       DAYS        YEARS
                    -----------------------------------------------------------
   TIME STEP LENGTH 1.90914E+05  3181.9      53.032      2.2097     6.04970E-03
 STRESS PERIOD TIME 2.09378E+06  34896.      581.61      24.234     6.63480E-02
         TOTAL TIME 2.09378E+06  34896.      581.61      24.234     6.63480E-02
1
 
 SOLVING FOR HEAD 
     3 CALLS TO PCG ROUTINE FOR TIME STEP  62 IN STRESS PERIOD    1
    12 TOTAL ITERATIONS

 HEAD/DRAWDOWN PRINTOUT FLAG = 0     TOTAL BUDGET PRINTOUT FLAG = 1
 CELL-BY-CELL FLOW TERM FLAG = 0
 REUSING PREVIOUS VALUES OF IOFLG

 SAVING SATURATED THICKNESS AND FLOW TERMS ON UNIT  333 FOR MT3DMS
 BY THE LINK-MT3DMS PACKAGE V6.3 AT TIME STEP   62, STRESS PERIOD    1

1
  VOLUMETRIC BUDGET FOR ENTIRE MODEL AT END OF TIME STEP 62 IN STRESS PERIOD   1
  ------------------------------------------------------------------------------

     CUMULATIVE VOLUMES      L**3       RATES FOR THIS TIME STEP      L**3/T
     ------------------                 ------------------------

           IN:                                      IN:
           ---                                      ---
             STORAGE =       32771.9258               STORAGE =           0.0000
       CONSTANT HEAD =      225209.9375         CONSTANT HEAD =           0.1084
                 MNW =      257101.0469                   MNW =           0.1080

            TOTAL IN =      515082.9062              TOTAL IN =           0.2165

          OUT:                                     OUT:
          ----                                     ----
             STORAGE =      120462.9219               STORAGE =       1.0815E-02
       CONSTANT HEAD =      137423.9375         CONSTANT HEAD =       9.7587E-02
                 MNW =      257101.0469                   MNW =           0.1080

           TOTAL OUT =      514987.9062             TOTAL OUT =           0.2164

            IN - OUT =          95.0000              IN - OUT =       4.0561E-05

 PERCENT DISCREPANCY =           0.02     PERCENT DISCREPANCY =           0.02






          TIME SUMMARY AT END OF TIME STEP  62 IN STRESS PERIOD    1
                    SECONDS     MINUTES      HOURS       DAYS        YEARS
                    -----------------------------------------------------------
   TIME STEP LENGTH 2.10005E+05  3500.1      58.335      2.4306     6.65467E-03
 STRESS PERIOD TIME 2.30379E+06  38396.      639.94      26.664     7.30026E-02
         TOTAL TIME 2.30379E+06  38396.      639.94      26.664     7.30026E-02
1
 
 SOLVING FOR HEAD 
     3 CALLS TO PCG ROUTINE FOR TIME STEP  63 IN STRESS PERIOD    1
    12 TOTAL ITERATIONS

 HEAD/DRAWDOWN PRINTOUT FLAG = 0     TOTAL BUDGET PRINTOUT FLAG = 1
 CELL-BY-CELL FLOW TERM FLAG = 0
 REUSING PREVIOUS VALUES OF IOFLG

 SAVING SATURATED THICKNESS AND FLOW TERMS ON UNIT  333 FOR MT3DMS
 BY THE LINK-MT3DMS PACKAGE V6.3 AT TIME STEP   63, STRESS PERIOD    1

1
  VOLUMETRIC BUDGET FOR ENTIRE MODEL AT END OF TIME STEP 63 IN STRESS PERIOD   1
  ------------------------------------------------------------------------------

     CUMULATIVE VOLUMES      L**3       RATES FOR THIS TIME STEP      L**3/T
     ------------------                 ------------------------

           IN:                                      IN:
           ---                                      ---
             STORAGE =       32771.9258               STORAGE =           0.0000
       CONSTANT HEAD =      250208.8594         CONSTANT HEAD =           0.1082
                 MNW =      282023.9688                   MNW =           0.1079

            TOTAL IN =      565004.7500              TOTAL IN =           0.2161

          OUT:                                     OUT:
          ----                                     ----
             STORAGE =      122372.8750               STORAGE =       8.2680E-03
       CONSTANT HEAD =      160504.9375         CONSTANT HEAD =       9.9915E-02
                 MNW =      282023.9688                   MNW =           0.1079

           TOTAL OUT =      564901.7500             TOTAL OUT =           0.2161

            IN - OUT =         103.0000              IN - OUT =       3.4481E-05

 PERCENT DISCREPANCY =           0.02     PERCENT DISCREPANCY =           0.02






          TIME SUMMARY AT END OF TIME STEP  63 IN STRESS PERIOD    1
                    SECONDS     MINUTES      HOURS       DAYS        YEARS
                    -----------------------------------------------------------
   TIME STEP LENGTH 2.31006E+05  3850.1      64.168      2.6737     7.32014E-03
 STRESS PERIOD TIME 2.53479E+06  42247.      704.11      29.338     8.03228E-02
         TOTAL TIME 2.53479E+06  42247.      704.11      29.338     8.03228E-02
1
 
 SOLVING FOR HEAD 
     3 CALLS TO PCG ROUTINE FOR TIME STEP  64 IN STRESS PERIOD    1
    10 TOTAL ITERATIONS

 HEAD/DRAWDOWN PRINTOUT FLAG = 0     TOTAL BUDGET PRINTOUT FLAG = 1
 CELL-BY-CELL FLOW TERM FLAG = 0
 REUSING PREVIOUS VALUES OF IOFLG

 SAVING SATURATED THICKNESS AND FLOW TERMS ON UNIT  333 FOR MT3DMS
 BY THE LINK-MT3DMS PACKAGE V6.3 AT TIME STEP   64, STRESS PERIOD    1

1
  VOLUMETRIC BUDGET FOR ENTIRE MODEL AT END OF TIME STEP 64 IN STRESS PERIOD   1
  ------------------------------------------------------------------------------

     CUMULATIVE VOLUMES      L**3       RATES FOR THIS TIME STEP      L**3/T
     ------------------                 ------------------------

           IN:                                      IN:
           ---                                      ---
             STORAGE =       32771.9258               STORAGE =           0.0000
       CONSTANT HEAD =      277658.6875         CONSTANT HEAD =           0.1080
                 MNW =      309407.5625                   MNW =           0.1078

            TOTAL IN =      619838.1875              TOTAL IN =           0.2158

          OUT:                                     OUT:
          ----                                     ----
             STORAGE =      123934.0469               STORAGE =       6.1438E-03
       CONSTANT HEAD =      186387.1406         CONSTANT HEAD =           0.1019
                 MNW =      309407.5625                   MNW =           0.1078

           TOTAL OUT =      619728.7500             TOTAL OUT =           0.2158

            IN - OUT =         109.4375              IN - OUT =       2.5377E-05

 PERCENT DISCREPANCY =           0.02     PERCENT DISCREPANCY =           0.01






          TIME SUMMARY AT END OF TIME STEP  64 IN STRESS PERIOD    1
                    SECONDS     MINUTES      HOURS       DAYS        YEARS
                    -----------------------------------------------------------
   TIME STEP LENGTH 2.54106E+05  4235.1      70.585      2.9410     8.05215E-03
 STRESS PERIOD TIME 2.78890E+06  46482.      774.69      32.279     8.83749E-02
         TOTAL TIME 2.78890E+06  46482.      774.69      32.279     8.83749E-02
1
 
 SOLVING FOR HEAD 
     5 CALLS TO PCG ROUTINE FOR TIME STEP  65 IN STRESS PERIOD    1
    15 TOTAL ITERATIONS

 HEAD/DRAWDOWN PRINTOUT FLAG = 0     TOTAL BUDGET PRINTOUT FLAG = 1
 CELL-BY-CELL FLOW TERM FLAG = 0
 REUSING PREVIOUS VALUES OF IOFLG

 SAVING SATURATED THICKNESS AND FLOW TERMS ON UNIT  333 FOR MT3DMS
 BY THE LINK-MT3DMS PACKAGE V6.3 AT TIME STEP   65, STRESS PERIOD    1

1
  VOLUMETRIC BUDGET FOR ENTIRE MODEL AT END OF TIME STEP 65 IN STRESS PERIOD   1
  ------------------------------------------------------------------------------

     CUMULATIVE VOLUMES      L**3       RATES FOR THIS TIME STEP      L**3/T
     ------------------                 ------------------------

           IN:                                      IN:
           ---                                      ---
             STORAGE =       32771.9258               STORAGE =           0.0000
       CONSTANT HEAD =      307796.0312         CONSTANT HEAD =           0.1078
                 MNW =      339514.6875                   MNW =           0.1077

            TOTAL IN =      680082.6250              TOTAL IN =           0.2155

          OUT:                                     OUT:
          ----                                     ----
             STORAGE =      125185.4219               STORAGE =       4.4769E-03
       CONSTANT HEAD =      215279.6875         CONSTANT HEAD =           0.1034
                 MNW =      339514.6875                   MNW =           0.1077

           TOTAL OUT =      679979.8125             TOTAL OUT =           0.2156

            IN - OUT =         102.8125              IN - OUT =      -2.3529E-05

 PERCENT DISCREPANCY =           0.02     PERCENT DISCREPANCY =          -0.01






          TIME SUMMARY AT END OF TIME STEP  65 IN STRESS PERIOD    1
                    SECONDS     MINUTES      HOURS       DAYS        YEARS
                    -----------------------------------------------------------
   TIME STEP LENGTH 2.79517E+05  4658.6      77.644      3.2352     8.85736E-03
 STRESS PERIOD TIME 3.06842E+06  51140.      852.34      35.514     9.72323E-02
         TOTAL TIME 3.06842E+06  51140.      852.34      35.514     9.72323E-02
1
 
 SOLVING FOR HEAD 
     4 CALLS TO PCG ROUTINE FOR TIME STEP  66 IN STRESS PERIOD    1
    13 TOTAL ITERATIONS

 HEAD/DRAWDOWN PRINTOUT FLAG = 0     TOTAL BUDGET PRINTOUT FLAG = 1
 CELL-BY-CELL FLOW TERM FLAG = 0
 REUSING PREVIOUS VALUES OF IOFLG

 SAVING SATURATED THICKNESS AND FLOW TERMS ON UNIT  333 FOR MT3DMS
 BY THE LINK-MT3DMS PACKAGE V6.3 AT TIME STEP   66, STRESS PERIOD    1

1
  VOLUMETRIC BUDGET FOR ENTIRE MODEL AT END OF TIME STEP 66 IN STRESS PERIOD   1
  ------------------------------------------------------------------------------

     CUMULATIVE VOLUMES      L**3       RATES FOR THIS TIME STEP      L**3/T
     ------------------                 ------------------------

           IN:                                      IN:
           ---                                      ---
             STORAGE =       32771.9258               STORAGE =           0.0000
       CONSTANT HEAD =      340916.1562         CONSTANT HEAD =           0.1077
                 MNW =      372707.9688                   MNW =           0.1080

            TOTAL IN =      746396.0625              TOTAL IN =           0.2157

          OUT:                                     OUT:
          ----                                     ----
             STORAGE =      126161.3359               STORAGE =       3.1740E-03
       CONSTANT HEAD =      247423.1562         CONSTANT HEAD =           0.1045
                 MNW =      372707.9688                   MNW =           0.1080

           TOTAL OUT =      746292.4375             TOTAL OUT =           0.2157

            IN - OUT =         103.6250              IN - OUT =       2.4289E-06

 PERCENT DISCREPANCY =           0.01     PERCENT DISCREPANCY =           0.00






          TIME SUMMARY AT END OF TIME STEP  66 IN STRESS PERIOD    1
                    SECONDS     MINUTES      HOURS       DAYS        YEARS
                    -----------------------------------------------------------
   TIME STEP LENGTH 3.07469E+05  5124.5      85.408      3.5587     9.74310E-03
 STRESS PERIOD TIME 3.37589E+06  56265.      937.75      39.073     0.10698    
         TOTAL TIME 3.37589E+06  56265.      937.75      39.073     0.10698    
1
 
 SOLVING FOR HEAD 
     3 CALLS TO PCG ROUTINE FOR TIME STEP  67 IN STRESS PERIOD    1
    14 TOTAL ITERATIONS

 HEAD/DRAWDOWN PRINTOUT FLAG = 0     TOTAL BUDGET PRINTOUT FLAG = 1
 CELL-BY-CELL FLOW TERM FLAG = 0
 REUSING PREVIOUS VALUES OF IOFLG

 SAVING SATURATED THICKNESS AND FLOW TERMS ON UNIT  333 FOR MT3DMS
 BY THE LINK-MT3DMS PACKAGE V6.3 AT TIME STEP   67, STRESS PERIOD    1

1
  VOLUMETRIC BUDGET FOR ENTIRE MODEL AT END OF TIME STEP 67 IN STRESS PERIOD   1
  ------------------------------------------------------------------------------

     CUMULATIVE VOLUMES      L**3       RATES FOR THIS TIME STEP      L**3/T
     ------------------                 ------------------------

           IN:                                      IN:
           ---                                      ---
             STORAGE =       32771.9297               STORAGE =       1.4810E-08
       CONSTANT HEAD =      377330.1875         CONSTANT HEAD =           0.1077
                 MNW =      409084.0938                   MNW =           0.1076

            TOTAL IN =      819186.1875              TOTAL IN =           0.2152

          OUT:                                     OUT:
          ----                                     ----
             STORAGE =      126911.7969               STORAGE =       2.2189E-03
       CONSTANT HEAD =      283094.2500         CONSTANT HEAD =           0.1055
                 MNW =      409084.0938                   MNW =           0.1076

           TOTAL OUT =      819090.1250             TOTAL OUT =           0.2152

            IN - OUT =          96.0625              IN - OUT =      -2.2233E-05

 PERCENT DISCREPANCY =           0.01     PERCENT DISCREPANCY =          -0.01






          TIME SUMMARY AT END OF TIME STEP  67 IN STRESS PERIOD    1
                    SECONDS     MINUTES      HOURS       DAYS        YEARS
                    -----------------------------------------------------------
   TIME STEP LENGTH 3.38216E+05  5636.9      93.949      3.9145     1.07174E-02
 STRESS PERIOD TIME 3.71410E+06  61902.      1031.7      42.987     0.11769    
         TOTAL TIME 3.71410E+06  61902.      1031.7      42.987     0.11769    
1
 
 SOLVING FOR HEAD 
     3 CALLS TO PCG ROUTINE FOR TIME STEP  68 IN STRESS PERIOD    1
    11 TOTAL ITERATIONS

 HEAD/DRAWDOWN PRINTOUT FLAG = 0     TOTAL BUDGET PRINTOUT FLAG = 1
 CELL-BY-CELL FLOW TERM FLAG = 0
 REUSING PREVIOUS VALUES OF IOFLG

 SAVING SATURATED THICKNESS AND FLOW TERMS ON UNIT  333 FOR MT3DMS
 BY THE LINK-MT3DMS PACKAGE V6.3 AT TIME STEP   68, STRESS PERIOD    1

1
  VOLUMETRIC BUDGET FOR ENTIRE MODEL AT END OF TIME STEP 68 IN STRESS PERIOD   1
  ------------------------------------------------------------------------------

     CUMULATIVE VOLUMES      L**3       RATES FOR THIS TIME STEP      L**3/T
     ------------------                 ------------------------

           IN:                                      IN:
           ---                                      ---
             STORAGE =       32771.9336               STORAGE =       8.8298E-09
       CONSTANT HEAD =      417360.3125         CONSTANT HEAD =           0.1076
                 MNW =      449083.0625                   MNW =           0.1075

            TOTAL IN =      899215.3125              TOTAL IN =           0.2151

          OUT:                                     OUT:
          ----                                     ----
             STORAGE =      127456.5391               STORAGE =       1.4642E-03
       CONSTANT HEAD =      322580.3750         CONSTANT HEAD =           0.1061
                 MNW =      449083.0625                   MNW =           0.1075

           TOTAL OUT =      899120.0000             TOTAL OUT =           0.2151

            IN - OUT =          95.3125              IN - OUT =      -1.9670E-06

 PERCENT DISCREPANCY =           0.01     PERCENT DISCREPANCY =           0.00






          TIME SUMMARY AT END OF TIME STEP  68 IN STRESS PERIOD    1
                    SECONDS     MINUTES      HOURS       DAYS        YEARS
                    -----------------------------------------------------------
   TIME STEP LENGTH 3.72037E+05  6200.6      103.34      4.3060     1.17892E-02
 STRESS PERIOD TIME 4.08614E+06  68102.      1135.0      47.293     0.12948    
         TOTAL TIME 4.08614E+06  68102.      1135.0      47.293     0.12948    
1
 
 SOLVING FOR HEAD 
     2 CALLS TO PCG ROUTINE FOR TIME STEP  69 IN STRESS PERIOD    1
     5 TOTAL ITERATIONS

 HEAD/DRAWDOWN PRINTOUT FLAG = 0     TOTAL BUDGET PRINTOUT FLAG = 1
 CELL-BY-CELL FLOW TERM FLAG = 0
 REUSING PREVIOUS VALUES OF IOFLG

 SAVING SATURATED THICKNESS AND FLOW TERMS ON UNIT  333 FOR MT3DMS
 BY THE LINK-MT3DMS PACKAGE V6.3 AT TIME STEP   69, STRESS PERIOD    1

1
  VOLUMETRIC BUDGET FOR ENTIRE MODEL AT END OF TIME STEP 69 IN STRESS PERIOD   1
  ------------------------------------------------------------------------------

     CUMULATIVE VOLUMES      L**3       RATES FOR THIS TIME STEP      L**3/T
     ------------------                 ------------------------

           IN:                                      IN:
           ---                                      ---
             STORAGE =       32771.9336               STORAGE =           0.0000
       CONSTANT HEAD =      461368.9375         CONSTANT HEAD =           0.1075
                 MNW =      493061.3750                   MNW =           0.1075

            TOTAL IN =      987202.2500              TOTAL IN =           0.2150

          OUT:                                     OUT:
          ----                                     ----
             STORAGE =      127827.9297               STORAGE =       9.0751E-04
       CONSTANT HEAD =      366154.0000         CONSTANT HEAD =           0.1065
                 MNW =      493061.3750                   MNW =           0.1075

           TOTAL OUT =      987043.3125             TOTAL OUT =           0.2148

            IN - OUT =         158.9375              IN - OUT =       1.5545E-04

 PERCENT DISCREPANCY =           0.02     PERCENT DISCREPANCY =           0.07






          TIME SUMMARY AT END OF TIME STEP  69 IN STRESS PERIOD    1
                    SECONDS     MINUTES      HOURS       DAYS        YEARS
                    -----------------------------------------------------------
   TIME STEP LENGTH 4.09241E+05  6820.7      113.68      4.7366     1.29681E-02
 STRESS PERIOD TIME 4.49538E+06  74923.      1248.7      52.030     0.14245    
         TOTAL TIME 4.49538E+06  74923.      1248.7      52.030     0.14245    
1
 
 SOLVING FOR HEAD 
     2 CALLS TO PCG ROUTINE FOR TIME STEP  70 IN STRESS PERIOD    1
     5 TOTAL ITERATIONS

 HEAD/DRAWDOWN PRINTOUT FLAG = 0     TOTAL BUDGET PRINTOUT FLAG = 1
 CELL-BY-CELL FLOW TERM FLAG = 0
 REUSING PREVIOUS VALUES OF IOFLG

 SAVING SATURATED THICKNESS AND FLOW TERMS ON UNIT  333 FOR MT3DMS
 BY THE LINK-MT3DMS PACKAGE V6.3 AT TIME STEP   70, STRESS PERIOD    1

1
  VOLUMETRIC BUDGET FOR ENTIRE MODEL AT END OF TIME STEP 70 IN STRESS PERIOD   1
  ------------------------------------------------------------------------------

     CUMULATIVE VOLUMES      L**3       RATES FOR THIS TIME STEP      L**3/T
     ------------------                 ------------------------

           IN:                                      IN:
           ---                                      ---
             STORAGE =       32771.9336               STORAGE =       1.8353E-11
       CONSTANT HEAD =      509758.2812         CONSTANT HEAD =           0.1075
                 MNW =      541537.2500                   MNW =           0.1077

            TOTAL IN =     1084067.5000              TOTAL IN =           0.2152

          OUT:                                     OUT:
          ----                                     ----
             STORAGE =      128086.6719               STORAGE =       5.7477E-04
       CONSTANT HEAD =      414237.0312         CONSTANT HEAD =           0.1068
                 MNW =      541537.2500                   MNW =           0.1077

           TOTAL OUT =     1083861.0000             TOTAL OUT =           0.2151

            IN - OUT =         206.5000              IN - OUT =       1.0566E-04

 PERCENT DISCREPANCY =           0.02     PERCENT DISCREPANCY =           0.05






          TIME SUMMARY AT END OF TIME STEP  70 IN STRESS PERIOD    1
                    SECONDS     MINUTES      HOURS       DAYS        YEARS
                    -----------------------------------------------------------
   TIME STEP LENGTH 4.50165E+05  7502.8      125.05      5.2102     1.42649E-02
 STRESS PERIOD TIME 4.94555E+06  82426.      1373.8      57.240     0.15671    
         TOTAL TIME 4.94555E+06  82426.      1373.8      57.240     0.15671    
1
 
 SOLVING FOR HEAD 
     3 CALLS TO PCG ROUTINE FOR TIME STEP  71 IN STRESS PERIOD    1
    11 TOTAL ITERATIONS

 HEAD/DRAWDOWN PRINTOUT FLAG = 0     TOTAL BUDGET PRINTOUT FLAG = 1
 CELL-BY-CELL FLOW TERM FLAG = 0
 REUSING PREVIOUS VALUES OF IOFLG

 SAVING SATURATED THICKNESS AND FLOW TERMS ON UNIT  333 FOR MT3DMS
 BY THE LINK-MT3DMS PACKAGE V6.3 AT TIME STEP   71, STRESS PERIOD    1

1
  VOLUMETRIC BUDGET FOR ENTIRE MODEL AT END OF TIME STEP 71 IN STRESS PERIOD   1
  ------------------------------------------------------------------------------

     CUMULATIVE VOLUMES      L**3       RATES FOR THIS TIME STEP      L**3/T
     ------------------                 ------------------------

           IN:                                      IN:
           ---                                      ---
             STORAGE =       32778.0625               STORAGE =       1.2377E-05
       CONSTANT HEAD =      563010.6875         CONSTANT HEAD =           0.1075
                 MNW =      594733.9375                   MNW =           0.1074

            TOTAL IN =     1190522.7500              TOTAL IN =           0.2150

          OUT:                                     OUT:
          ----                                     ----
             STORAGE =      128304.3203               STORAGE =       4.3954E-04
       CONSTANT HEAD =      467287.5312         CONSTANT HEAD =           0.1071
                 MNW =      594733.9375                   MNW =           0.1074

           TOTAL OUT =     1190325.7500             TOTAL OUT =           0.2150

            IN - OUT =         197.0000              IN - OUT =      -1.9431E-05

 PERCENT DISCREPANCY =           0.02     PERCENT DISCREPANCY =          -0.01






          TIME SUMMARY AT END OF TIME STEP  71 IN STRESS PERIOD    1
                    SECONDS     MINUTES      HOURS       DAYS        YEARS
                    -----------------------------------------------------------
   TIME STEP LENGTH 4.95182E+05  8253.0      137.55      5.7313     1.56914E-02
 STRESS PERIOD TIME 5.44073E+06  90679.      1511.3      62.971     0.17241    
         TOTAL TIME 5.44073E+06  90679.      1511.3      62.971     0.17241    
1
 
 SOLVING FOR HEAD 
     1 CALLS TO PCG ROUTINE FOR TIME STEP  72 IN STRESS PERIOD    1
     1 TOTAL ITERATIONS

 HEAD/DRAWDOWN PRINTOUT FLAG = 0     TOTAL BUDGET PRINTOUT FLAG = 1
 CELL-BY-CELL FLOW TERM FLAG = 0
 REUSING PREVIOUS VALUES OF IOFLG

 SAVING SATURATED THICKNESS AND FLOW TERMS ON UNIT  333 FOR MT3DMS
 BY THE LINK-MT3DMS PACKAGE V6.3 AT TIME STEP   72, STRESS PERIOD    1

1
  VOLUMETRIC BUDGET FOR ENTIRE MODEL AT END OF TIME STEP 72 IN STRESS PERIOD   1
  ------------------------------------------------------------------------------

     CUMULATIVE VOLUMES      L**3       RATES FOR THIS TIME STEP      L**3/T
     ------------------                 ------------------------

           IN:                                      IN:
           ---                                      ---
             STORAGE =       32778.2227               STORAGE =       2.9402E-07
       CONSTANT HEAD =      621584.9375         CONSTANT HEAD =           0.1075
                 MNW =      653245.0000                   MNW =           0.1074

            TOTAL IN =     1307608.1250              TOTAL IN =           0.2150

          OUT:                                     OUT:
          ----                                     ----
             STORAGE =      128311.4062               STORAGE =       1.3004E-05
       CONSTANT HEAD =      525646.5625         CONSTANT HEAD =           0.1071
                 MNW =      653245.0000                   MNW =           0.1074

           TOTAL OUT =     1307203.0000             TOTAL OUT =           0.2146

            IN - OUT =         405.1250              IN - OUT =       3.8238E-04

 PERCENT DISCREPANCY =           0.03     PERCENT DISCREPANCY =           0.18






          TIME SUMMARY AT END OF TIME STEP  72 IN STRESS PERIOD    1
                    SECONDS     MINUTES      HOURS       DAYS        YEARS
                    -----------------------------------------------------------
   TIME STEP LENGTH 5.44700E+05  9078.3      151.31      6.3044     1.72605E-02
 STRESS PERIOD TIME 5.98543E+06  99757.      1662.6      69.276     0.18967    
         TOTAL TIME 5.98543E+06  99757.      1662.6      69.276     0.18967    
1
 
 SOLVING FOR HEAD 
     2 CALLS TO PCG ROUTINE FOR TIME STEP  73 IN STRESS PERIOD    1
     4 TOTAL ITERATIONS

 HEAD/DRAWDOWN PRINTOUT FLAG = 0     TOTAL BUDGET PRINTOUT FLAG = 1
 CELL-BY-CELL FLOW TERM FLAG = 0
 REUSING PREVIOUS VALUES OF IOFLG

 SAVING SATURATED THICKNESS AND FLOW TERMS ON UNIT  333 FOR MT3DMS
 BY THE LINK-MT3DMS PACKAGE V6.3 AT TIME STEP   73, STRESS PERIOD    1

1
  VOLUMETRIC BUDGET FOR ENTIRE MODEL AT END OF TIME STEP 73 IN STRESS PERIOD   1
  ------------------------------------------------------------------------------

     CUMULATIVE VOLUMES      L**3       RATES FOR THIS TIME STEP      L**3/T
     ------------------                 ------------------------

           IN:                                      IN:
           ---                                      ---
             STORAGE =       32779.1172               STORAGE =       1.4926E-06
       CONSTANT HEAD =      685992.4375         CONSTANT HEAD =           0.1075
                 MNW =      717388.0000                   MNW =           0.1071

            TOTAL IN =     1436159.5000              TOTAL IN =           0.2145

          OUT:                                     OUT:
          ----                                     ----
             STORAGE =      128380.7344               STORAGE =       1.1571E-04
       CONSTANT HEAD =      589882.8125         CONSTANT HEAD =           0.1072
                 MNW =      717388.0000                   MNW =           0.1071

           TOTAL OUT =     1435651.5000             TOTAL OUT =           0.2144

            IN - OUT =         508.0000              IN - OUT =       1.7162E-04

 PERCENT DISCREPANCY =           0.04     PERCENT DISCREPANCY =           0.08






          TIME SUMMARY AT END OF TIME STEP  73 IN STRESS PERIOD    1
                    SECONDS     MINUTES      HOURS       DAYS        YEARS
                    -----------------------------------------------------------
   TIME STEP LENGTH 5.99170E+05  9986.2      166.44      6.9348     1.89866E-02
 STRESS PERIOD TIME 6.58460E+06 1.09743E+05  1829.1      76.211     0.20865    
         TOTAL TIME 6.58460E+06 1.09743E+05  1829.1      76.211     0.20865    
1
 
 SOLVING FOR HEAD 
     3 CALLS TO PCG ROUTINE FOR TIME STEP  74 IN STRESS PERIOD    1
    14 TOTAL ITERATIONS

 HEAD/DRAWDOWN PRINTOUT FLAG = 0     TOTAL BUDGET PRINTOUT FLAG = 1
 CELL-BY-CELL FLOW TERM FLAG = 0
 REUSING PREVIOUS VALUES OF IOFLG

 SAVING SATURATED THICKNESS AND FLOW TERMS ON UNIT  333 FOR MT3DMS
 BY THE LINK-MT3DMS PACKAGE V6.3 AT TIME STEP   74, STRESS PERIOD    1

1
  VOLUMETRIC BUDGET FOR ENTIRE MODEL AT END OF TIME STEP 74 IN STRESS PERIOD   1
  ------------------------------------------------------------------------------

     CUMULATIVE VOLUMES      L**3       RATES FOR THIS TIME STEP      L**3/T
     ------------------                 ------------------------

           IN:                                      IN:
           ---                                      ---
             STORAGE =       32780.2695               STORAGE =       1.7473E-06
       CONSTANT HEAD =      756786.7500         CONSTANT HEAD =           0.1074
                 MNW =      788213.6875                   MNW =           0.1075

            TOTAL IN =     1577780.7500              TOTAL IN =           0.2149

          OUT:                                     OUT:
          ----                                     ----
             STORAGE =      128445.3906               STORAGE =       9.8098E-05
       CONSTANT HEAD =      660592.1875         CONSTANT HEAD =           0.1073
                 MNW =      788213.6875                   MNW =           0.1075

           TOTAL OUT =     1577251.2500             TOTAL OUT =           0.2148

            IN - OUT =         529.5000              IN - OUT =       3.2559E-05

 PERCENT DISCREPANCY =           0.03     PERCENT DISCREPANCY =           0.02






          TIME SUMMARY AT END OF TIME STEP  74 IN STRESS PERIOD    1
                    SECONDS     MINUTES      HOURS       DAYS        YEARS
                    -----------------------------------------------------------
   TIME STEP LENGTH 6.59087E+05  10985.      183.08      7.6283     2.08852E-02
 STRESS PERIOD TIME 7.24368E+06 1.20728E+05  2012.1      83.839     0.22954    
         TOTAL TIME 7.24368E+06 1.20728E+05  2012.1      83.839     0.22954    
1
 
 SOLVING FOR HEAD 
     3 CALLS TO PCG ROUTINE FOR TIME STEP  75 IN STRESS PERIOD    1
     7 TOTAL ITERATIONS

 HEAD/DRAWDOWN PRINTOUT FLAG = 0     TOTAL BUDGET PRINTOUT FLAG = 1
 CELL-BY-CELL FLOW TERM FLAG = 0
 REUSING PREVIOUS VALUES OF IOFLG

 SAVING SATURATED THICKNESS AND FLOW TERMS ON UNIT  333 FOR MT3DMS
 BY THE LINK-MT3DMS PACKAGE V6.3 AT TIME STEP   75, STRESS PERIOD    1

1
  VOLUMETRIC BUDGET FOR ENTIRE MODEL AT END OF TIME STEP 75 IN STRESS PERIOD   1
  ------------------------------------------------------------------------------

     CUMULATIVE VOLUMES      L**3       RATES FOR THIS TIME STEP      L**3/T
     ------------------                 ------------------------

           IN:                                      IN:
           ---                                      ---
             STORAGE =       32781.0117               STORAGE =       1.0235E-06
       CONSTANT HEAD =      834669.8125         CONSTANT HEAD =           0.1074
                 MNW =      866132.8750                   MNW =           0.1075

            TOTAL IN =     1733583.7500              TOTAL IN =           0.2149

          OUT:                                     OUT:
          ----                                     ----
             STORAGE =      128498.0469               STORAGE =       7.2626E-05
       CONSTANT HEAD =      738432.8125         CONSTANT HEAD =           0.1074
                 MNW =      866132.8750                   MNW =           0.1075

           TOTAL OUT =     1733063.7500             TOTAL OUT =           0.2149

            IN - OUT =         520.0000              IN - OUT =      -1.3098E-05

 PERCENT DISCREPANCY =           0.03     PERCENT DISCREPANCY =          -0.01






          TIME SUMMARY AT END OF TIME STEP  75 IN STRESS PERIOD    1
                    SECONDS     MINUTES      HOURS       DAYS        YEARS
                    -----------------------------------------------------------
   TIME STEP LENGTH 7.24996E+05  12083.      201.39      8.3912     2.29737E-02
 STRESS PERIOD TIME 7.96868E+06 1.32811E+05  2213.5      92.230     0.25251    
         TOTAL TIME 7.96868E+06 1.32811E+05  2213.5      92.230     0.25251    
1
 
 SOLVING FOR HEAD 
     3 CALLS TO PCG ROUTINE FOR TIME STEP  76 IN STRESS PERIOD    1
     8 TOTAL ITERATIONS

 HEAD/DRAWDOWN PRINTOUT FLAG = 0     TOTAL BUDGET PRINTOUT FLAG = 1
 CELL-BY-CELL FLOW TERM FLAG = 0
 REUSING PREVIOUS VALUES OF IOFLG

 SAVING SATURATED THICKNESS AND FLOW TERMS ON UNIT  333 FOR MT3DMS
 BY THE LINK-MT3DMS PACKAGE V6.3 AT TIME STEP   76, STRESS PERIOD    1

1
  VOLUMETRIC BUDGET FOR ENTIRE MODEL AT END OF TIME STEP 76 IN STRESS PERIOD   1
  ------------------------------------------------------------------------------

     CUMULATIVE VOLUMES      L**3       RATES FOR THIS TIME STEP      L**3/T
     ------------------                 ------------------------

           IN:                                      IN:
           ---                                      ---
             STORAGE =       32781.3945               STORAGE =       4.8097E-07
       CONSTANT HEAD =      920337.1250         CONSTANT HEAD =           0.1074
                 MNW =      951831.1250                   MNW =           0.1075

            TOTAL IN =     1904949.6250              TOTAL IN =           0.2149

          OUT:                                     OUT:
          ----                                     ----
             STORAGE =      128519.7578               STORAGE =       2.7220E-05
       CONSTANT HEAD =      824080.1250         CONSTANT HEAD =           0.1074
                 MNW =      951831.1250                   MNW =           0.1075

           TOTAL OUT =     1904431.0000             TOTAL OUT =           0.2149

            IN - OUT =         518.6250              IN - OUT =      -1.6242E-06

 PERCENT DISCREPANCY =           0.03     PERCENT DISCREPANCY =           0.00






          TIME SUMMARY AT END OF TIME STEP  76 IN STRESS PERIOD    1
                    SECONDS     MINUTES      HOURS       DAYS        YEARS
                    -----------------------------------------------------------
   TIME STEP LENGTH 7.97495E+05  13292.      221.53      9.2303     2.52711E-02
 STRESS PERIOD TIME 8.76618E+06 1.46103E+05  2435.0      101.46     0.27778    
         TOTAL TIME 8.76618E+06 1.46103E+05  2435.0      101.46     0.27778    
1
 
 SOLVING FOR HEAD 
     3 CALLS TO PCG ROUTINE FOR TIME STEP  77 IN STRESS PERIOD    1
     7 TOTAL ITERATIONS

 HEAD/DRAWDOWN PRINTOUT FLAG = 0     TOTAL BUDGET PRINTOUT FLAG = 1
 CELL-BY-CELL FLOW TERM FLAG = 0
 REUSING PREVIOUS VALUES OF IOFLG

 SAVING SATURATED THICKNESS AND FLOW TERMS ON UNIT  333 FOR MT3DMS
 BY THE LINK-MT3DMS PACKAGE V6.3 AT TIME STEP   77, STRESS PERIOD    1

1
  VOLUMETRIC BUDGET FOR ENTIRE MODEL AT END OF TIME STEP 77 IN STRESS PERIOD   1
  ------------------------------------------------------------------------------

     CUMULATIVE VOLUMES      L**3       RATES FOR THIS TIME STEP      L**3/T
     ------------------                 ------------------------

           IN:                                      IN:
           ---                                      ---
             STORAGE =       32781.4844               STORAGE =       1.0277E-07
       CONSTANT HEAD =     1014572.3750         CONSTANT HEAD =           0.1074
                 MNW =     1046103.3750                   MNW =           0.1075

            TOTAL IN =     2093457.2500              TOTAL IN =           0.2149

          OUT:                                     OUT:
          ----                                     ----
             STORAGE =      128533.3281               STORAGE =       1.5469E-05
       CONSTANT HEAD =      918308.1875         CONSTANT HEAD =           0.1074
                 MNW =     1046103.3750                   MNW =           0.1075

           TOTAL OUT =     2092944.8750             TOTAL OUT =           0.2149

            IN - OUT =         512.3750              IN - OUT =      -7.2420E-06

 PERCENT DISCREPANCY =           0.02     PERCENT DISCREPANCY =           0.00






          TIME SUMMARY AT END OF TIME STEP  77 IN STRESS PERIOD    1
                    SECONDS     MINUTES      HOURS       DAYS        YEARS
                    -----------------------------------------------------------
   TIME STEP LENGTH 8.77245E+05  14621.      243.68      10.153     2.77982E-02
 STRESS PERIOD TIME 9.64342E+06 1.60724E+05  2678.7      111.61     0.30558    
         TOTAL TIME 9.64342E+06 1.60724E+05  2678.7      111.61     0.30558    
1
 
 SOLVING FOR HEAD 
     2 CALLS TO PCG ROUTINE FOR TIME STEP  78 IN STRESS PERIOD    1
     3 TOTAL ITERATIONS

 HEAD/DRAWDOWN PRINTOUT FLAG = 0     TOTAL BUDGET PRINTOUT FLAG = 1
 CELL-BY-CELL FLOW TERM FLAG = 0
 REUSING PREVIOUS VALUES OF IOFLG

 SAVING SATURATED THICKNESS AND FLOW TERMS ON UNIT  333 FOR MT3DMS
 BY THE LINK-MT3DMS PACKAGE V6.3 AT TIME STEP   78, STRESS PERIOD    1

1
  VOLUMETRIC BUDGET FOR ENTIRE MODEL AT END OF TIME STEP 78 IN STRESS PERIOD   1
  ------------------------------------------------------------------------------

     CUMULATIVE VOLUMES      L**3       RATES FOR THIS TIME STEP      L**3/T
     ------------------                 ------------------------

           IN:                                      IN:
           ---                                      ---
             STORAGE =       32783.8242               STORAGE =       2.4263E-06
       CONSTANT HEAD =     1118239.7500         CONSTANT HEAD =           0.1074
                 MNW =     1149917.5000                   MNW =           0.1076

            TOTAL IN =     2300941.0000              TOTAL IN =           0.2150

          OUT:                                     OUT:
          ----                                     ----
             STORAGE =      128538.8125               STORAGE =       5.6873E-06
       CONSTANT HEAD =     1021961.4375         CONSTANT HEAD =           0.1074
                 MNW =     1149917.5000                   MNW =           0.1076

           TOTAL OUT =     2300417.7500             TOTAL OUT =           0.2150

            IN - OUT =         523.2500              IN - OUT =       1.1399E-05

 PERCENT DISCREPANCY =           0.02     PERCENT DISCREPANCY =           0.01






          TIME SUMMARY AT END OF TIME STEP  78 IN STRESS PERIOD    1
                    SECONDS     MINUTES      HOURS       DAYS        YEARS
                    -----------------------------------------------------------
   TIME STEP LENGTH 9.64969E+05  16083.      268.05      11.169     3.05780E-02
 STRESS PERIOD TIME 1.06084E+07 1.76806E+05  2946.8      122.78     0.33616    
         TOTAL TIME 1.06084E+07 1.76806E+05  2946.8      122.78     0.33616    
1
 
 SOLVING FOR HEAD 
     3 CALLS TO PCG ROUTINE FOR TIME STEP  79 IN STRESS PERIOD    1
    10 TOTAL ITERATIONS

 HEAD/DRAWDOWN PRINTOUT FLAG = 0     TOTAL BUDGET PRINTOUT FLAG = 1
 CELL-BY-CELL FLOW TERM FLAG = 0
 REUSING PREVIOUS VALUES OF IOFLG

 SAVING SATURATED THICKNESS AND FLOW TERMS ON UNIT  333 FOR MT3DMS
 BY THE LINK-MT3DMS PACKAGE V6.3 AT TIME STEP   79, STRESS PERIOD    1

1
  VOLUMETRIC BUDGET FOR ENTIRE MODEL AT END OF TIME STEP 79 IN STRESS PERIOD   1
  ------------------------------------------------------------------------------

     CUMULATIVE VOLUMES      L**3       RATES FOR THIS TIME STEP      L**3/T
     ------------------                 ------------------------

           IN:                                      IN:
           ---                                      ---
             STORAGE =       32789.3633               STORAGE =       5.2191E-06
       CONSTANT HEAD =     1232330.0000         CONSTANT HEAD =           0.1075
                 MNW =     1263928.5000                   MNW =           0.1074

            TOTAL IN =     2529047.7500              TOTAL IN =           0.2149

          OUT:                                     OUT:
          ----                                     ----
             STORAGE =      128580.6875               STORAGE =       3.9452E-05
       CONSTANT HEAD =     1136039.7500         CONSTANT HEAD =           0.1075
                 MNW =     1263928.5000                   MNW =           0.1074

           TOTAL OUT =     2528549.0000             TOTAL OUT =           0.2149

            IN - OUT =         498.7500              IN - OUT =      -2.2992E-05

 PERCENT DISCREPANCY =           0.02     PERCENT DISCREPANCY =          -0.01






          TIME SUMMARY AT END OF TIME STEP  79 IN STRESS PERIOD    1
                    SECONDS     MINUTES      HOURS       DAYS        YEARS
                    -----------------------------------------------------------
   TIME STEP LENGTH 1.06147E+06  17691.      294.85      12.285     3.36358E-02
 STRESS PERIOD TIME 1.16699E+07 1.94498E+05  3241.6      135.07     0.36980    
         TOTAL TIME 1.16699E+07 1.94498E+05  3241.6      135.07     0.36980    
1
 
 SOLVING FOR HEAD 
     3 CALLS TO PCG ROUTINE FOR TIME STEP  80 IN STRESS PERIOD    1
     7 TOTAL ITERATIONS

 HEAD/DRAWDOWN PRINTOUT FLAG = 0     TOTAL BUDGET PRINTOUT FLAG = 1
 CELL-BY-CELL FLOW TERM FLAG = 0
 REUSING PREVIOUS VALUES OF IOFLG

 SAVING SATURATED THICKNESS AND FLOW TERMS ON UNIT  333 FOR MT3DMS
 BY THE LINK-MT3DMS PACKAGE V6.3 AT TIME STEP   80, STRESS PERIOD    1

1
  VOLUMETRIC BUDGET FOR ENTIRE MODEL AT END OF TIME STEP 80 IN STRESS PERIOD   1
  ------------------------------------------------------------------------------

     CUMULATIVE VOLUMES      L**3       RATES FOR THIS TIME STEP      L**3/T
     ------------------                 ------------------------

           IN:                                      IN:
           ---                                      ---
             STORAGE =       32800.9180               STORAGE =       9.8965E-06
       CONSTANT HEAD =     1357801.7500         CONSTANT HEAD =           0.1075
                 MNW =     1389348.3750                   MNW =           0.1074

            TOTAL IN =     2779951.0000              TOTAL IN =           0.2149

          OUT:                                     OUT:
          ----                                     ----
             STORAGE =      128586.2578               STORAGE =       4.7724E-06
       CONSTANT HEAD =     1261506.1250         CONSTANT HEAD =           0.1075
                 MNW =     1389348.3750                   MNW =           0.1074

           TOTAL OUT =     2779440.7500             TOTAL OUT =           0.2149

            IN - OUT =         510.2500              IN - OUT =       9.7305E-06

 PERCENT DISCREPANCY =           0.02     PERCENT DISCREPANCY =           0.00






          TIME SUMMARY AT END OF TIME STEP  80 IN STRESS PERIOD    1
                    SECONDS     MINUTES      HOURS       DAYS        YEARS
                    -----------------------------------------------------------
   TIME STEP LENGTH 1.16761E+06  19460.      324.34      13.514     3.69994E-02
 STRESS PERIOD TIME 1.28375E+07 2.13958E+05  3566.0      148.58     0.40679    
         TOTAL TIME 1.28375E+07 2.13958E+05  3566.0      148.58     0.40679    
1
 
 SOLVING FOR HEAD 
     1 CALLS TO PCG ROUTINE FOR TIME STEP  81 IN STRESS PERIOD    1
     1 TOTAL ITERATIONS

 HEAD/DRAWDOWN PRINTOUT FLAG = 0     TOTAL BUDGET PRINTOUT FLAG = 1
 CELL-BY-CELL FLOW TERM FLAG = 0
 REUSING PREVIOUS VALUES OF IOFLG

 SAVING SATURATED THICKNESS AND FLOW TERMS ON UNIT  333 FOR MT3DMS
 BY THE LINK-MT3DMS PACKAGE V6.3 AT TIME STEP   81, STRESS PERIOD    1

1
  VOLUMETRIC BUDGET FOR ENTIRE MODEL AT END OF TIME STEP 81 IN STRESS PERIOD   1
  ------------------------------------------------------------------------------

     CUMULATIVE VOLUMES      L**3       RATES FOR THIS TIME STEP      L**3/T
     ------------------                 ------------------------

           IN:                                      IN:
           ---                                      ---
             STORAGE =       32802.7070               STORAGE =       1.3942E-06
       CONSTANT HEAD =     1495817.0000         CONSTANT HEAD =           0.1075
                 MNW =     1527328.8750                   MNW =           0.1074

            TOTAL IN =     3055948.5000              TOTAL IN =           0.2149

          OUT:                                     OUT:
          ----                                     ----
             STORAGE =      128587.3828               STORAGE =       8.7731E-07
       CONSTANT HEAD =     1399519.3750         CONSTANT HEAD =           0.1075
                 MNW =     1527328.8750                   MNW =           0.1074

           TOTAL OUT =     3055435.7500             TOTAL OUT =           0.2149

            IN - OUT =         512.7500              IN - OUT =       2.1309E-06

 PERCENT DISCREPANCY =           0.02     PERCENT DISCREPANCY =           0.00






          TIME SUMMARY AT END OF TIME STEP  81 IN STRESS PERIOD    1
                    SECONDS     MINUTES      HOURS       DAYS        YEARS
                    -----------------------------------------------------------
   TIME STEP LENGTH 1.28437E+06  21406.      356.77      14.865     4.06994E-02
 STRESS PERIOD TIME 1.41218E+07 2.35364E+05  3922.7      163.45     0.44749    
         TOTAL TIME 1.41218E+07 2.35364E+05  3922.7      163.45     0.44749    
1
 
 SOLVING FOR HEAD 
     1 CALLS TO PCG ROUTINE FOR TIME STEP  82 IN STRESS PERIOD    1
     1 TOTAL ITERATIONS

 HEAD/DRAWDOWN PRINTOUT FLAG = 0     TOTAL BUDGET PRINTOUT FLAG = 1
 CELL-BY-CELL FLOW TERM FLAG = 0
 REUSING PREVIOUS VALUES OF IOFLG

 SAVING SATURATED THICKNESS AND FLOW TERMS ON UNIT  333 FOR MT3DMS
 BY THE LINK-MT3DMS PACKAGE V6.3 AT TIME STEP   82, STRESS PERIOD    1

1
  VOLUMETRIC BUDGET FOR ENTIRE MODEL AT END OF TIME STEP 82 IN STRESS PERIOD   1
  ------------------------------------------------------------------------------

     CUMULATIVE VOLUMES      L**3       RATES FOR THIS TIME STEP      L**3/T
     ------------------                 ------------------------

           IN:                                      IN:
           ---                                      ---
             STORAGE =       32805.6406               STORAGE =       2.0772E-06
       CONSTANT HEAD =     1647627.7500         CONSTANT HEAD =           0.1075
                 MNW =     1679092.5000                   MNW =           0.1074

            TOTAL IN =     3359526.0000              TOTAL IN =           0.2149

          OUT:                                     OUT:
          ----                                     ----
             STORAGE =      128588.8281               STORAGE =       1.0225E-06
       CONSTANT HEAD =     1551333.5000         CONSTANT HEAD =           0.1075
                 MNW =     1679092.5000                   MNW =           0.1074

           TOTAL OUT =     3359014.7500             TOTAL OUT =           0.2149

            IN - OUT =         511.2500              IN - OUT =      -1.3411E-06

 PERCENT DISCREPANCY =           0.02     PERCENT DISCREPANCY =           0.00






          TIME SUMMARY AT END OF TIME STEP  82 IN STRESS PERIOD    1
                    SECONDS     MINUTES      HOURS       DAYS        YEARS
                    -----------------------------------------------------------
   TIME STEP LENGTH 1.41281E+06  23547.      392.45      16.352     4.47693E-02
 STRESS PERIOD TIME 1.55347E+07 2.58911E+05  4315.2      179.80     0.49226    
         TOTAL TIME 1.55347E+07 2.58911E+05  4315.2      179.80     0.49226    
1
 
 SOLVING FOR HEAD 
    11 CALLS TO PCG ROUTINE FOR TIME STEP  83 IN STRESS PERIOD    1
    34 TOTAL ITERATIONS

 HEAD/DRAWDOWN PRINTOUT FLAG = 0     TOTAL BUDGET PRINTOUT FLAG = 1
 CELL-BY-CELL FLOW TERM FLAG = 0
 REUSING PREVIOUS VALUES OF IOFLG

 SAVING SATURATED THICKNESS AND FLOW TERMS ON UNIT  333 FOR MT3DMS
 BY THE LINK-MT3DMS PACKAGE V6.3 AT TIME STEP   83, STRESS PERIOD    1

1
  VOLUMETRIC BUDGET FOR ENTIRE MODEL AT END OF TIME STEP 83 IN STRESS PERIOD   1
  ------------------------------------------------------------------------------

     CUMULATIVE VOLUMES      L**3       RATES FOR THIS TIME STEP      L**3/T
     ------------------                 ------------------------

           IN:                                      IN:
           ---                                      ---
             STORAGE =       32808.3398               STORAGE =       1.7376E-06
       CONSTANT HEAD =     1814619.8750         CONSTANT HEAD =           0.1075
                 MNW =     1846027.6250                   MNW =           0.1074

            TOTAL IN =     3693455.7500              TOTAL IN =           0.2149

          OUT:                                     OUT:
          ----                                     ----
             STORAGE =      128592.1953               STORAGE =       2.1667E-06
       CONSTANT HEAD =     1718344.0000         CONSTANT HEAD =           0.1075
                 MNW =     1846027.6250                   MNW =           0.1074

           TOTAL OUT =     3692963.7500             TOTAL OUT =           0.2149

            IN - OUT =         492.0000              IN - OUT =      -1.2264E-05

 PERCENT DISCREPANCY =           0.01     PERCENT DISCREPANCY =          -0.01






          TIME SUMMARY AT END OF TIME STEP  83 IN STRESS PERIOD    1
                    SECONDS     MINUTES      HOURS       DAYS        YEARS
                    -----------------------------------------------------------
   TIME STEP LENGTH 1.55409E+06  25902.      431.69      17.987     4.92462E-02
 STRESS PERIOD TIME 1.70887E+07 2.84812E+05  4746.9      197.79     0.54151    
         TOTAL TIME 1.70887E+07 2.84812E+05  4746.9      197.79     0.54151    
1
 
 SOLVING FOR HEAD 
     3 CALLS TO PCG ROUTINE FOR TIME STEP  84 IN STRESS PERIOD    1
     8 TOTAL ITERATIONS

 HEAD/DRAWDOWN PRINTOUT FLAG = 0     TOTAL BUDGET PRINTOUT FLAG = 1
 CELL-BY-CELL FLOW TERM FLAG = 0
 REUSING PREVIOUS VALUES OF IOFLG

 SAVING SATURATED THICKNESS AND FLOW TERMS ON UNIT  333 FOR MT3DMS
 BY THE LINK-MT3DMS PACKAGE V6.3 AT TIME STEP   84, STRESS PERIOD    1

1
  VOLUMETRIC BUDGET FOR ENTIRE MODEL AT END OF TIME STEP 84 IN STRESS PERIOD   1
  ------------------------------------------------------------------------------

     CUMULATIVE VOLUMES      L**3       RATES FOR THIS TIME STEP      L**3/T
     ------------------                 ------------------------

           IN:                                      IN:
           ---                                      ---
             STORAGE =       32810.9375               STORAGE =       1.5185E-06
       CONSTANT HEAD =     1998331.7500         CONSTANT HEAD =           0.1075
                 MNW =     2029656.7500                   MNW =           0.1074

            TOTAL IN =     4060799.5000              TOTAL IN =           0.2149

          OUT:                                     OUT:
          ----                                     ----
             STORAGE =      128598.3281               STORAGE =       3.5882E-06
       CONSTANT HEAD =     1902057.8750         CONSTANT HEAD =           0.1075
                 MNW =     2029656.7500                   MNW =           0.1074

           TOTAL OUT =     4060313.0000             TOTAL OUT =           0.2149

            IN - OUT =         486.5000              IN - OUT =      -3.2485E-06

 PERCENT DISCREPANCY =           0.01     PERCENT DISCREPANCY =           0.00






          TIME SUMMARY AT END OF TIME STEP  84 IN STRESS PERIOD    1
                    SECONDS     MINUTES      HOURS       DAYS        YEARS
                    -----------------------------------------------------------
   TIME STEP LENGTH 1.70950E+06  28492.      474.86      19.786     5.41709E-02
 STRESS PERIOD TIME 1.87982E+07 3.13304E+05  5221.7      217.57     0.59568    
         TOTAL TIME 1.87982E+07 3.13304E+05  5221.7      217.57     0.59568    
1
 
 SOLVING FOR HEAD 
     1 CALLS TO PCG ROUTINE FOR TIME STEP  85 IN STRESS PERIOD    1
     1 TOTAL ITERATIONS

 HEAD/DRAWDOWN PRINTOUT FLAG = 0     TOTAL BUDGET PRINTOUT FLAG = 1
 CELL-BY-CELL FLOW TERM FLAG = 0
 REUSING PREVIOUS VALUES OF IOFLG

 SAVING SATURATED THICKNESS AND FLOW TERMS ON UNIT  333 FOR MT3DMS
 BY THE LINK-MT3DMS PACKAGE V6.3 AT TIME STEP   85, STRESS PERIOD    1

1
  VOLUMETRIC BUDGET FOR ENTIRE MODEL AT END OF TIME STEP 85 IN STRESS PERIOD   1
  ------------------------------------------------------------------------------

     CUMULATIVE VOLUMES      L**3       RATES FOR THIS TIME STEP      L**3/T
     ------------------                 ------------------------

           IN:                                      IN:
           ---                                      ---
             STORAGE =       32813.1328               STORAGE =       1.1665E-06
       CONSTANT HEAD =     2200407.2500         CONSTANT HEAD =           0.1075
                 MNW =     2231675.7500                   MNW =           0.1074

            TOTAL IN =     4464896.0000              TOTAL IN =           0.2149

          OUT:                                     OUT:
          ----                                     ----
             STORAGE =      128599.1016               STORAGE =       4.1107E-07
       CONSTANT HEAD =     2104139.0000         CONSTANT HEAD =           0.1075
                 MNW =     2231675.7500                   MNW =           0.1074

           TOTAL OUT =     4464414.0000             TOTAL OUT =           0.2149

            IN - OUT =         482.0000              IN - OUT =      -2.3097E-06

 PERCENT DISCREPANCY =           0.01     PERCENT DISCREPANCY =           0.00






          TIME SUMMARY AT END OF TIME STEP  85 IN STRESS PERIOD    1
                    SECONDS     MINUTES      HOURS       DAYS        YEARS
                    -----------------------------------------------------------
   TIME STEP LENGTH 1.88045E+06  31341.      522.35      21.764     5.95879E-02
 STRESS PERIOD TIME 2.06787E+07 3.44645E+05  5744.1      239.34     0.65527    
         TOTAL TIME 2.06787E+07 3.44645E+05  5744.1      239.34     0.65527    
1
 
 SOLVING FOR HEAD 
     3 CALLS TO PCG ROUTINE FOR TIME STEP  86 IN STRESS PERIOD    1
     8 TOTAL ITERATIONS

 HEAD/DRAWDOWN PRINTOUT FLAG = 0     TOTAL BUDGET PRINTOUT FLAG = 1
 CELL-BY-CELL FLOW TERM FLAG = 0
 REUSING PREVIOUS VALUES OF IOFLG

 SAVING SATURATED THICKNESS AND FLOW TERMS ON UNIT  333 FOR MT3DMS
 BY THE LINK-MT3DMS PACKAGE V6.3 AT TIME STEP   86, STRESS PERIOD    1

1
  VOLUMETRIC BUDGET FOR ENTIRE MODEL AT END OF TIME STEP 86 IN STRESS PERIOD   1
  ------------------------------------------------------------------------------

     CUMULATIVE VOLUMES      L**3       RATES FOR THIS TIME STEP      L**3/T
     ------------------                 ------------------------

           IN:                                      IN:
           ---                                      ---
             STORAGE =       32833.1133               STORAGE =       9.6589E-06
       CONSTANT HEAD =     2422623.0000         CONSTANT HEAD =           0.1074
                 MNW =     2453943.5000                   MNW =           0.1075

            TOTAL IN =     4909399.5000              TOTAL IN =           0.2149

          OUT:                                     OUT:
          ----                                     ----
             STORAGE =      128602.4141               STORAGE =       1.6017E-06
       CONSTANT HEAD =     2326359.7500         CONSTANT HEAD =           0.1074
                 MNW =     2453943.5000                   MNW =           0.1075

           TOTAL OUT =     4908905.5000             TOTAL OUT =           0.2149

            IN - OUT =         494.0000              IN - OUT =       5.6922E-06

 PERCENT DISCREPANCY =           0.01     PERCENT DISCREPANCY =           0.00






          TIME SUMMARY AT END OF TIME STEP  86 IN STRESS PERIOD    1
                    SECONDS     MINUTES      HOURS       DAYS        YEARS
                    -----------------------------------------------------------
   TIME STEP LENGTH 2.06850E+06  34475.      574.58      23.941     6.55467E-02
 STRESS PERIOD TIME 2.27472E+07 3.79120E+05  6318.7      263.28     0.72082    
         TOTAL TIME 2.27472E+07 3.79120E+05  6318.7      263.28     0.72082    
1
 
 SOLVING FOR HEAD 
     1 CALLS TO PCG ROUTINE FOR TIME STEP  87 IN STRESS PERIOD    1
     1 TOTAL ITERATIONS

 HEAD/DRAWDOWN PRINTOUT FLAG = 0     TOTAL BUDGET PRINTOUT FLAG = 1
 CELL-BY-CELL FLOW TERM FLAG = 0
 REUSING PREVIOUS VALUES OF IOFLG

 SAVING SATURATED THICKNESS AND FLOW TERMS ON UNIT  333 FOR MT3DMS
 BY THE LINK-MT3DMS PACKAGE V6.3 AT TIME STEP   87, STRESS PERIOD    1

1
  VOLUMETRIC BUDGET FOR ENTIRE MODEL AT END OF TIME STEP 87 IN STRESS PERIOD   1
  ------------------------------------------------------------------------------

     CUMULATIVE VOLUMES      L**3       RATES FOR THIS TIME STEP      L**3/T
     ------------------                 ------------------------

           IN:                                      IN:
           ---                                      ---
             STORAGE =       32833.5391               STORAGE =       1.8643E-07
       CONSTANT HEAD =     2667064.5000         CONSTANT HEAD =           0.1074
                 MNW =     2698417.7500                   MNW =           0.1074

            TOTAL IN =     5398316.0000              TOTAL IN =           0.2149

          OUT:                                     OUT:
          ----                                     ----
             STORAGE =      128603.3750               STORAGE =       4.2073E-07
       CONSTANT HEAD =     2570804.7500         CONSTANT HEAD =           0.1074
                 MNW =     2698417.7500                   MNW =           0.1074

           TOTAL OUT =     5397826.0000             TOTAL OUT =           0.2149

            IN - OUT =         490.0000              IN - OUT =      -1.7285E-06

 PERCENT DISCREPANCY =           0.01     PERCENT DISCREPANCY =           0.00






          TIME SUMMARY AT END OF TIME STEP  87 IN STRESS PERIOD    1
                    SECONDS     MINUTES      HOURS       DAYS        YEARS
                    -----------------------------------------------------------
   TIME STEP LENGTH 2.27535E+06  37922.      632.04      26.335     7.21014E-02
 STRESS PERIOD TIME 2.50225E+07 4.17042E+05  6950.7      289.61     0.79292    
         TOTAL TIME 2.50225E+07 4.17042E+05  6950.7      289.61     0.79292    
1
 
 SOLVING FOR HEAD 
     3 CALLS TO PCG ROUTINE FOR TIME STEP  88 IN STRESS PERIOD    1
     7 TOTAL ITERATIONS

 HEAD/DRAWDOWN PRINTOUT FLAG = 0     TOTAL BUDGET PRINTOUT FLAG = 1
 CELL-BY-CELL FLOW TERM FLAG = 0
 REUSING PREVIOUS VALUES OF IOFLG

 SAVING SATURATED THICKNESS AND FLOW TERMS ON UNIT  333 FOR MT3DMS
 BY THE LINK-MT3DMS PACKAGE V6.3 AT TIME STEP   88, STRESS PERIOD    1

1
  VOLUMETRIC BUDGET FOR ENTIRE MODEL AT END OF TIME STEP 88 IN STRESS PERIOD   1
  ------------------------------------------------------------------------------

     CUMULATIVE VOLUMES      L**3       RATES FOR THIS TIME STEP      L**3/T
     ------------------                 ------------------------

           IN:                                      IN:
           ---                                      ---
             STORAGE =       32837.7461               STORAGE =       1.6808E-06
       CONSTANT HEAD =     2936019.7500         CONSTANT HEAD =           0.1075
                 MNW =     2967262.2500                   MNW =           0.1074

            TOTAL IN =     5936119.5000              TOTAL IN =           0.2149

          OUT:                                     OUT:
          ----                                     ----
             STORAGE =      128619.2188               STORAGE =       6.3293E-06
       CONSTANT HEAD =     2839759.5000         CONSTANT HEAD =           0.1075
                 MNW =     2967262.2500                   MNW =           0.1074

           TOTAL OUT =     5935641.0000             TOTAL OUT =           0.2149

            IN - OUT =         478.5000              IN - OUT =      -4.4852E-06

 PERCENT DISCREPANCY =           0.01     PERCENT DISCREPANCY =           0.00






          TIME SUMMARY AT END OF TIME STEP  88 IN STRESS PERIOD    1
                    SECONDS     MINUTES      HOURS       DAYS        YEARS
                    -----------------------------------------------------------
   TIME STEP LENGTH 2.50288E+06  41715.      695.25      28.969     7.93116E-02
 STRESS PERIOD TIME 2.75254E+07 4.58757E+05  7646.0      318.58     0.87223    
         TOTAL TIME 2.75254E+07 4.58757E+05  7646.0      318.58     0.87223    
1
 
 SOLVING FOR HEAD 
     3 CALLS TO PCG ROUTINE FOR TIME STEP  89 IN STRESS PERIOD    1
     8 TOTAL ITERATIONS

 HEAD/DRAWDOWN PRINTOUT FLAG = 0     TOTAL BUDGET PRINTOUT FLAG = 1
 CELL-BY-CELL FLOW TERM FLAG = 0
 REUSING PREVIOUS VALUES OF IOFLG

 SAVING SATURATED THICKNESS AND FLOW TERMS ON UNIT  333 FOR MT3DMS
 BY THE LINK-MT3DMS PACKAGE V6.3 AT TIME STEP   89, STRESS PERIOD    1

1
  VOLUMETRIC BUDGET FOR ENTIRE MODEL AT END OF TIME STEP 89 IN STRESS PERIOD   1
  ------------------------------------------------------------------------------

     CUMULATIVE VOLUMES      L**3       RATES FOR THIS TIME STEP      L**3/T
     ------------------                 ------------------------

           IN:                                      IN:
           ---                                      ---
             STORAGE =       32838.8438               STORAGE =       3.9900E-07
       CONSTANT HEAD =     3231873.7500         CONSTANT HEAD =           0.1075
                 MNW =     3263009.5000                   MNW =           0.1074

            TOTAL IN =     6527722.0000              TOTAL IN =           0.2149

          OUT:                                     OUT:
          ----                                     ----
             STORAGE =      128623.1094               STORAGE =       1.4122E-06
       CONSTANT HEAD =     3135637.0000         CONSTANT HEAD =           0.1075
                 MNW =     3263009.5000                   MNW =           0.1074

           TOTAL OUT =     6527269.5000             TOTAL OUT =           0.2149

            IN - OUT =         452.5000              IN - OUT =      -9.5665E-06

 PERCENT DISCREPANCY =           0.01     PERCENT DISCREPANCY =           0.00






          TIME SUMMARY AT END OF TIME STEP  89 IN STRESS PERIOD    1
                    SECONDS     MINUTES      HOURS       DAYS        YEARS
                    -----------------------------------------------------------
   TIME STEP LENGTH 2.75317E+06  45886.      764.77      31.865     8.72427E-02
 STRESS PERIOD TIME 3.02786E+07 5.04643E+05  8410.7      350.45     0.95947    
         TOTAL TIME 3.02786E+07 5.04643E+05  8410.7      350.45     0.95947    
1
 
 SOLVING FOR HEAD 
     2 CALLS TO PCG ROUTINE FOR TIME STEP  90 IN STRESS PERIOD    1
     3 TOTAL ITERATIONS

 HEAD/DRAWDOWN PRINTOUT FLAG = 0     TOTAL BUDGET PRINTOUT FLAG = 1
 CELL-BY-CELL FLOW TERM FLAG = 0
 REUSING PREVIOUS VALUES OF IOFLG

 SAVING SATURATED THICKNESS AND FLOW TERMS ON UNIT  333 FOR MT3DMS
 BY THE LINK-MT3DMS PACKAGE V6.3 AT TIME STEP   90, STRESS PERIOD    1

1
  VOLUMETRIC BUDGET FOR ENTIRE MODEL AT END OF TIME STEP 90 IN STRESS PERIOD   1
  ------------------------------------------------------------------------------

     CUMULATIVE VOLUMES      L**3       RATES FOR THIS TIME STEP      L**3/T
     ------------------                 ------------------------

           IN:                                      IN:
           ---                                      ---
             STORAGE =       32845.7188               STORAGE =       2.2702E-06
       CONSTANT HEAD =     3557296.0000         CONSTANT HEAD =           0.1075
                 MNW =     3587901.7500                   MNW =           0.1073

            TOTAL IN =     7178043.5000              TOTAL IN =           0.2147

          OUT:                                     OUT:
          ----                                     ----
             STORAGE =      128627.9531               STORAGE =       1.5982E-06
       CONSTANT HEAD =     3461066.0000         CONSTANT HEAD =           0.1075
                 MNW =     3587901.7500                   MNW =           0.1073

           TOTAL OUT =     7177595.5000             TOTAL OUT =           0.2147

            IN - OUT =         448.0000              IN - OUT =      -1.5050E-06

 PERCENT DISCREPANCY =           0.01     PERCENT DISCREPANCY =           0.00






          TIME SUMMARY AT END OF TIME STEP  90 IN STRESS PERIOD    1
                    SECONDS     MINUTES      HOURS       DAYS        YEARS
                    -----------------------------------------------------------
   TIME STEP LENGTH 3.02849E+06  50475.      841.25      35.052     9.59670E-02
 STRESS PERIOD TIME 3.33071E+07 5.55118E+05  9252.0      385.50      1.0554    
         TOTAL TIME 3.33071E+07 5.55118E+05  9252.0      385.50      1.0554    
1
 
 SOLVING FOR HEAD 
     3 CALLS TO PCG ROUTINE FOR TIME STEP  91 IN STRESS PERIOD    1
    10 TOTAL ITERATIONS

 HEAD/DRAWDOWN PRINTOUT FLAG = 0     TOTAL BUDGET PRINTOUT FLAG = 1
 CELL-BY-CELL FLOW TERM FLAG = 0
 REUSING PREVIOUS VALUES OF IOFLG

 SAVING SATURATED THICKNESS AND FLOW TERMS ON UNIT  333 FOR MT3DMS
 BY THE LINK-MT3DMS PACKAGE V6.3 AT TIME STEP   91, STRESS PERIOD    1

1
  VOLUMETRIC BUDGET FOR ENTIRE MODEL AT END OF TIME STEP 91 IN STRESS PERIOD   1
  ------------------------------------------------------------------------------

     CUMULATIVE VOLUMES      L**3       RATES FOR THIS TIME STEP      L**3/T
     ------------------                 ------------------------

           IN:                                      IN:
           ---                                      ---
             STORAGE =       32878.9883               STORAGE =       9.9873E-06
       CONSTANT HEAD =     3915095.7500         CONSTANT HEAD =           0.1074
                 MNW =     3945954.5000                   MNW =           0.1075

            TOTAL IN =     7893929.0000              TOTAL IN =           0.2149

          OUT:                                     OUT:
          ----                                     ----
             STORAGE =      128635.6172               STORAGE =       2.3011E-06
       CONSTANT HEAD =     3818799.2500         CONSTANT HEAD =           0.1074
                 MNW =     3945954.5000                   MNW =           0.1075

           TOTAL OUT =     7893389.5000             TOTAL OUT =           0.2149

            IN - OUT =         539.5000              IN - OUT =       2.7686E-05

 PERCENT DISCREPANCY =           0.01     PERCENT DISCREPANCY =           0.01






          TIME SUMMARY AT END OF TIME STEP  91 IN STRESS PERIOD    1
                    SECONDS     MINUTES      HOURS       DAYS        YEARS
                    -----------------------------------------------------------
   TIME STEP LENGTH 3.33134E+06  55522.      925.37      38.557     0.10556    
 STRESS PERIOD TIME 3.66384E+07 6.10640E+05  10177.      424.06      1.1610    
         TOTAL TIME 3.66384E+07 6.10640E+05  10177.      424.06      1.1610    
1
 
 SOLVING FOR HEAD 
     3 CALLS TO PCG ROUTINE FOR TIME STEP  92 IN STRESS PERIOD    1
     8 TOTAL ITERATIONS

 HEAD/DRAWDOWN PRINTOUT FLAG = 0     TOTAL BUDGET PRINTOUT FLAG = 1
 CELL-BY-CELL FLOW TERM FLAG = 0
 REUSING PREVIOUS VALUES OF IOFLG

 SAVING SATURATED THICKNESS AND FLOW TERMS ON UNIT  333 FOR MT3DMS
 BY THE LINK-MT3DMS PACKAGE V6.3 AT TIME STEP   92, STRESS PERIOD    1

1
  VOLUMETRIC BUDGET FOR ENTIRE MODEL AT END OF TIME STEP 92 IN STRESS PERIOD   1
  ------------------------------------------------------------------------------

     CUMULATIVE VOLUMES      L**3       RATES FOR THIS TIME STEP      L**3/T
     ------------------                 ------------------------

           IN:                                      IN:
           ---                                      ---
             STORAGE =       32888.8945               STORAGE =       2.7032E-06
       CONSTANT HEAD =     4308740.0000         CONSTANT HEAD =           0.1074
                 MNW =     4339702.0000                   MNW =           0.1075

            TOTAL IN =     8681331.0000              TOTAL IN =           0.2149

          OUT:                                     OUT:
          ----                                     ----
             STORAGE =      128651.7969               STORAGE =       4.4162E-06
       CONSTANT HEAD =     4212426.0000         CONSTANT HEAD =           0.1074
                 MNW =     4339702.0000                   MNW =           0.1075

           TOTAL OUT =     8680780.0000             TOTAL OUT =           0.2149

            IN - OUT =         551.0000              IN - OUT =       3.0547E-06

 PERCENT DISCREPANCY =           0.01     PERCENT DISCREPANCY =           0.00






          TIME SUMMARY AT END OF TIME STEP  92 IN STRESS PERIOD    1
                    SECONDS     MINUTES      HOURS       DAYS        YEARS
                    -----------------------------------------------------------
   TIME STEP LENGTH 3.66447E+06  61075.      1017.9      42.413     0.11612    
 STRESS PERIOD TIME 4.03029E+07 6.71715E+05  11195.      466.47      1.2771    
         TOTAL TIME 4.03029E+07 6.71715E+05  11195.      466.47      1.2771    
1
 
 SOLVING FOR HEAD 
     3 CALLS TO PCG ROUTINE FOR TIME STEP  93 IN STRESS PERIOD    1
     7 TOTAL ITERATIONS

 HEAD/DRAWDOWN PRINTOUT FLAG = 0     TOTAL BUDGET PRINTOUT FLAG = 1
 CELL-BY-CELL FLOW TERM FLAG = 0
 REUSING PREVIOUS VALUES OF IOFLG

 SAVING SATURATED THICKNESS AND FLOW TERMS ON UNIT  333 FOR MT3DMS
 BY THE LINK-MT3DMS PACKAGE V6.3 AT TIME STEP   93, STRESS PERIOD    1

1
  VOLUMETRIC BUDGET FOR ENTIRE MODEL AT END OF TIME STEP 93 IN STRESS PERIOD   1
  ------------------------------------------------------------------------------

     CUMULATIVE VOLUMES      L**3       RATES FOR THIS TIME STEP      L**3/T
     ------------------                 ------------------------

           IN:                                      IN:
           ---                                      ---
             STORAGE =       32892.7500               STORAGE =       9.5655E-07
       CONSTANT HEAD =     4741869.5000         CONSTANT HEAD =           0.1075
                 MNW =     4772697.5000                   MNW =           0.1074

            TOTAL IN =     9547460.0000              TOTAL IN =           0.2149

          OUT:                                     OUT:
          ----                                     ----
             STORAGE =      128668.4453               STORAGE =       4.1310E-06
       CONSTANT HEAD =     4645547.5000         CONSTANT HEAD =           0.1074
                 MNW =     4772697.5000                   MNW =           0.1074

           TOTAL OUT =     9546913.0000             TOTAL OUT =           0.2149

            IN - OUT =         547.0000              IN - OUT =      -1.2368E-06

 PERCENT DISCREPANCY =           0.01     PERCENT DISCREPANCY =           0.00






          TIME SUMMARY AT END OF TIME STEP  93 IN STRESS PERIOD    1
                    SECONDS     MINUTES      HOURS       DAYS        YEARS
                    -----------------------------------------------------------
   TIME STEP LENGTH 4.03092E+06  67182.      1119.7      46.654     0.12773    
 STRESS PERIOD TIME 4.43338E+07 7.38897E+05  12315.      513.12      1.4049    
         TOTAL TIME 4.43338E+07 7.38897E+05  12315.      513.12      1.4049    
1
 
 SOLVING FOR HEAD 
     2 CALLS TO PCG ROUTINE FOR TIME STEP  94 IN STRESS PERIOD    1
     3 TOTAL ITERATIONS

 HEAD/DRAWDOWN PRINTOUT FLAG = 0     TOTAL BUDGET PRINTOUT FLAG = 1
 CELL-BY-CELL FLOW TERM FLAG = 0
 REUSING PREVIOUS VALUES OF IOFLG

 SAVING SATURATED THICKNESS AND FLOW TERMS ON UNIT  333 FOR MT3DMS
 BY THE LINK-MT3DMS PACKAGE V6.3 AT TIME STEP   94, STRESS PERIOD    1

1
  VOLUMETRIC BUDGET FOR ENTIRE MODEL AT END OF TIME STEP 94 IN STRESS PERIOD   1
  ------------------------------------------------------------------------------

     CUMULATIVE VOLUMES      L**3       RATES FOR THIS TIME STEP      L**3/T
     ------------------                 ------------------------

           IN:                                      IN:
           ---                                      ---
             STORAGE =       32899.7227               STORAGE =       1.5722E-06
       CONSTANT HEAD =     5218330.5000         CONSTANT HEAD =           0.1075
                 MNW =     5247872.0000                   MNW =           0.1072

            TOTAL IN =    10499102.0000              TOTAL IN =           0.2146

          OUT:                                     OUT:
          ----                                     ----
             STORAGE =      128684.1484               STORAGE =       3.5406E-06
       CONSTANT HEAD =     5121989.0000         CONSTANT HEAD =           0.1075
                 MNW =     5247872.0000                   MNW =           0.1072

           TOTAL OUT =    10498545.0000             TOTAL OUT =           0.2146

            IN - OUT =         557.0000              IN - OUT =       2.4289E-06

 PERCENT DISCREPANCY =           0.01     PERCENT DISCREPANCY =           0.00






          TIME SUMMARY AT END OF TIME STEP  94 IN STRESS PERIOD    1
                    SECONDS     MINUTES      HOURS       DAYS        YEARS
                    -----------------------------------------------------------
   TIME STEP LENGTH 4.43401E+06  73900.      1231.7      51.320     0.14051    
 STRESS PERIOD TIME 4.87678E+07 8.12797E+05  13547.      564.44      1.5454    
         TOTAL TIME 4.87678E+07 8.12797E+05  13547.      564.44      1.5454    
1
 
 SOLVING FOR HEAD 
     3 CALLS TO PCG ROUTINE FOR TIME STEP  95 IN STRESS PERIOD    1
    13 TOTAL ITERATIONS

 HEAD/DRAWDOWN PRINTOUT FLAG = 0     TOTAL BUDGET PRINTOUT FLAG = 1
 CELL-BY-CELL FLOW TERM FLAG = 0
 REUSING PREVIOUS VALUES OF IOFLG

 SAVING SATURATED THICKNESS AND FLOW TERMS ON UNIT  333 FOR MT3DMS
 BY THE LINK-MT3DMS PACKAGE V6.3 AT TIME STEP   95, STRESS PERIOD    1

1
  VOLUMETRIC BUDGET FOR ENTIRE MODEL AT END OF TIME STEP 95 IN STRESS PERIOD   1
  ------------------------------------------------------------------------------

     CUMULATIVE VOLUMES      L**3       RATES FOR THIS TIME STEP      L**3/T
     ------------------                 ------------------------

           IN:                                      IN:
           ---                                      ---
             STORAGE =       32907.2500               STORAGE =       1.5432E-06
       CONSTANT HEAD =     5742304.5000         CONSTANT HEAD =           0.1074
                 MNW =     5771970.0000                   MNW =           0.1075

            TOTAL IN =    11547182.0000              TOTAL IN =           0.2149

          OUT:                                     OUT:
          ----                                     ----
             STORAGE =      128697.9141               STORAGE =       2.8221E-06
       CONSTANT HEAD =     5645936.0000         CONSTANT HEAD =           0.1074
                 MNW =     5771970.0000                   MNW =           0.1075

           TOTAL OUT =    11546604.0000             TOTAL OUT =           0.2149

            IN - OUT =         578.0000              IN - OUT =       4.3213E-06

 PERCENT DISCREPANCY =           0.01     PERCENT DISCREPANCY =           0.00






          TIME SUMMARY AT END OF TIME STEP  95 IN STRESS PERIOD    1
                    SECONDS     MINUTES      HOURS       DAYS        YEARS
                    -----------------------------------------------------------
   TIME STEP LENGTH 4.87741E+06  81290.      1354.8      56.452     0.15456    
 STRESS PERIOD TIME 5.36452E+07 8.94087E+05  14901.      620.89      1.6999    
         TOTAL TIME 5.36452E+07 8.94087E+05  14901.      620.89      1.6999    
1
 
 SOLVING FOR HEAD 
     3 CALLS TO PCG ROUTINE FOR TIME STEP  96 IN STRESS PERIOD    1
     8 TOTAL ITERATIONS

 HEAD/DRAWDOWN PRINTOUT FLAG = 0     TOTAL BUDGET PRINTOUT FLAG = 1
 CELL-BY-CELL FLOW TERM FLAG = 0
 REUSING PREVIOUS VALUES OF IOFLG

 SAVING SATURATED THICKNESS AND FLOW TERMS ON UNIT  333 FOR MT3DMS
 BY THE LINK-MT3DMS PACKAGE V6.3 AT TIME STEP   96, STRESS PERIOD    1

1
  VOLUMETRIC BUDGET FOR ENTIRE MODEL AT END OF TIME STEP 96 IN STRESS PERIOD   1
  ------------------------------------------------------------------------------

     CUMULATIVE VOLUMES      L**3       RATES FOR THIS TIME STEP      L**3/T
     ------------------                 ------------------------

           IN:                                      IN:
           ---                                      ---
             STORAGE =       32931.1367               STORAGE =       4.4522E-06
       CONSTANT HEAD =     6318690.0000         CONSTANT HEAD =           0.1074
                 MNW =     6348505.0000                   MNW =           0.1075

            TOTAL IN =    12700126.0000              TOTAL IN =           0.2149

          OUT:                                     OUT:
          ----                                     ----
             STORAGE =      128702.7344               STORAGE =       8.9862E-07
       CONSTANT HEAD =     6222281.0000         CONSTANT HEAD =           0.1074
                 MNW =     6348505.0000                   MNW =           0.1075

           TOTAL OUT =    12699489.0000             TOTAL OUT =           0.2149

            IN - OUT =         637.0000              IN - OUT =       1.1086E-05

 PERCENT DISCREPANCY =           0.01     PERCENT DISCREPANCY =           0.01






          TIME SUMMARY AT END OF TIME STEP  96 IN STRESS PERIOD    1
                    SECONDS     MINUTES      HOURS       DAYS        YEARS
                    -----------------------------------------------------------
   TIME STEP LENGTH 5.36515E+06  89419.      1490.3      62.097     0.17001    
 STRESS PERIOD TIME 5.90104E+07 9.83506E+05  16392.      682.99      1.8699    
         TOTAL TIME 5.90104E+07 9.83506E+05  16392.      682.99      1.8699    
1
 
 SOLVING FOR HEAD 
     7 CALLS TO PCG ROUTINE FOR TIME STEP  97 IN STRESS PERIOD    1
    19 TOTAL ITERATIONS

 HEAD/DRAWDOWN PRINTOUT FLAG = 0     TOTAL BUDGET PRINTOUT FLAG = 1
 CELL-BY-CELL FLOW TERM FLAG = 0
 REUSING PREVIOUS VALUES OF IOFLG

 SAVING SATURATED THICKNESS AND FLOW TERMS ON UNIT  333 FOR MT3DMS
 BY THE LINK-MT3DMS PACKAGE V6.3 AT TIME STEP   97, STRESS PERIOD    1

1
  VOLUMETRIC BUDGET FOR ENTIRE MODEL AT END OF TIME STEP 97 IN STRESS PERIOD   1
  ------------------------------------------------------------------------------

     CUMULATIVE VOLUMES      L**3       RATES FOR THIS TIME STEP      L**3/T
     ------------------                 ------------------------

           IN:                                      IN:
           ---                                      ---
             STORAGE =       32932.3828               STORAGE =       2.1125E-07
       CONSTANT HEAD =     6952723.5000         CONSTANT HEAD =           0.1074
                 MNW =     6982676.5000                   MNW =           0.1075

            TOTAL IN =    13968332.0000              TOTAL IN =           0.2149

          OUT:                                     OUT:
          ----                                     ----
             STORAGE =      128706.7344               STORAGE =       6.7839E-07
       CONSTANT HEAD =     6856285.0000         CONSTANT HEAD =           0.1074
                 MNW =     6982676.5000                   MNW =           0.1075

           TOTAL OUT =    13967668.0000             TOTAL OUT =           0.2149

            IN - OUT =         664.0000              IN - OUT =       4.5449E-06

 PERCENT DISCREPANCY =           0.00     PERCENT DISCREPANCY =           0.00






          TIME SUMMARY AT END OF TIME STEP  97 IN STRESS PERIOD    1
                    SECONDS     MINUTES      HOURS       DAYS        YEARS
                    -----------------------------------------------------------
   TIME STEP LENGTH 5.90167E+06  98361.      1639.4      68.306     0.18701    
 STRESS PERIOD TIME 6.49121E+07 1.08187E+06  18031.      751.30      2.0569    
         TOTAL TIME 6.49121E+07 1.08187E+06  18031.      751.30      2.0569    
1
 
 SOLVING FOR HEAD 
     1 CALLS TO PCG ROUTINE FOR TIME STEP  98 IN STRESS PERIOD    1
     1 TOTAL ITERATIONS

 HEAD/DRAWDOWN PRINTOUT FLAG = 0     TOTAL BUDGET PRINTOUT FLAG = 1
 CELL-BY-CELL FLOW TERM FLAG = 0
 REUSING PREVIOUS VALUES OF IOFLG

 SAVING SATURATED THICKNESS AND FLOW TERMS ON UNIT  333 FOR MT3DMS
 BY THE LINK-MT3DMS PACKAGE V6.3 AT TIME STEP   98, STRESS PERIOD    1

1
  VOLUMETRIC BUDGET FOR ENTIRE MODEL AT END OF TIME STEP 98 IN STRESS PERIOD   1
  ------------------------------------------------------------------------------

     CUMULATIVE VOLUMES      L**3       RATES FOR THIS TIME STEP      L**3/T
     ------------------                 ------------------------

           IN:                                      IN:
           ---                                      ---
             STORAGE =       32934.8438               STORAGE =       3.7918E-07
       CONSTANT HEAD =     7650166.5000         CONSTANT HEAD =           0.1074
                 MNW =     7680117.0000                   MNW =           0.1074

            TOTAL IN =    15363218.0000              TOTAL IN =           0.2149

          OUT:                                     OUT:
          ----                                     ----
             STORAGE =      128708.0547               STORAGE =       2.0381E-07
       CONSTANT HEAD =     7553703.5000         CONSTANT HEAD =           0.1074
                 MNW =     7680117.0000                   MNW =           0.1074

           TOTAL OUT =    15362529.0000             TOTAL OUT =           0.2149

            IN - OUT =         689.0000              IN - OUT =       3.9041E-06

 PERCENT DISCREPANCY =           0.00     PERCENT DISCREPANCY =           0.00






          TIME SUMMARY AT END OF TIME STEP  98 IN STRESS PERIOD    1
                    SECONDS     MINUTES      HOURS       DAYS        YEARS
                    -----------------------------------------------------------
   TIME STEP LENGTH 6.49183E+06 1.08197E+05  1803.3      75.137     0.20571    
 STRESS PERIOD TIME 7.14039E+07 1.19006E+06  19834.      826.43      2.2627    
         TOTAL TIME 7.14039E+07 1.19006E+06  19834.      826.43      2.2627    
1
 
 SOLVING FOR HEAD 
     3 CALLS TO PCG ROUTINE FOR TIME STEP  99 IN STRESS PERIOD    1
     9 TOTAL ITERATIONS

 HEAD/DRAWDOWN PRINTOUT FLAG = 0     TOTAL BUDGET PRINTOUT FLAG = 1
 CELL-BY-CELL FLOW TERM FLAG = 0
 REUSING PREVIOUS VALUES OF IOFLG

 SAVING SATURATED THICKNESS AND FLOW TERMS ON UNIT  333 FOR MT3DMS
 BY THE LINK-MT3DMS PACKAGE V6.3 AT TIME STEP   99, STRESS PERIOD    1

1
  VOLUMETRIC BUDGET FOR ENTIRE MODEL AT END OF TIME STEP 99 IN STRESS PERIOD   1
  ------------------------------------------------------------------------------

     CUMULATIVE VOLUMES      L**3       RATES FOR THIS TIME STEP      L**3/T
     ------------------                 ------------------------

           IN:                                      IN:
           ---                                      ---
             STORAGE =       32947.1992               STORAGE =       1.7301E-06
       CONSTANT HEAD =     8417524.0000         CONSTANT HEAD =           0.1075
                 MNW =     8447142.0000                   MNW =           0.1074

            TOTAL IN =    16897614.0000              TOTAL IN =           0.2149

          OUT:                                     OUT:
          ----                                     ----
             STORAGE =      128721.6250               STORAGE =       1.8998E-06
       CONSTANT HEAD =     8321136.5000         CONSTANT HEAD =           0.1075
                 MNW =     8447142.0000                   MNW =           0.1074

           TOTAL OUT =    16897000.0000             TOTAL OUT =           0.2149

            IN - OUT =         614.0000              IN - OUT =      -1.0744E-05

 PERCENT DISCREPANCY =           0.00     PERCENT DISCREPANCY =           0.00






          TIME SUMMARY AT END OF TIME STEP  99 IN STRESS PERIOD    1
                    SECONDS     MINUTES      HOURS       DAYS        YEARS
                    -----------------------------------------------------------
   TIME STEP LENGTH 7.14102E+06 1.19017E+05  1983.6      82.651     0.22629    
 STRESS PERIOD TIME 7.85449E+07 1.30908E+06  21818.      909.08      2.4889    
         TOTAL TIME 7.85449E+07 1.30908E+06  21818.      909.08      2.4889    
1
 
 SOLVING FOR HEAD 
     3 CALLS TO PCG ROUTINE FOR TIME STEP 100 IN STRESS PERIOD    1
     8 TOTAL ITERATIONS

 HEAD/DRAWDOWN PRINTOUT FLAG = 0     TOTAL BUDGET PRINTOUT FLAG = 1
 CELL-BY-CELL FLOW TERM FLAG = 0
 REUSING PREVIOUS VALUES OF IOFLG

 SAVING SATURATED THICKNESS AND FLOW TERMS ON UNIT  333 FOR MT3DMS
 BY THE LINK-MT3DMS PACKAGE V6.3 AT TIME STEP  100, STRESS PERIOD    1

1
  VOLUMETRIC BUDGET FOR ENTIRE MODEL AT END OF TIME STEP100 IN STRESS PERIOD   1
  ------------------------------------------------------------------------------

     CUMULATIVE VOLUMES      L**3       RATES FOR THIS TIME STEP      L**3/T
     ------------------                 ------------------------

           IN:                                      IN:
           ---                                      ---
             STORAGE =       32954.4805               STORAGE =       9.2674E-07
       CONSTANT HEAD =     9261570.0000         CONSTANT HEAD =           0.1075
                 MNW =     9291055.0000                   MNW =           0.1074

            TOTAL IN =    18585580.0000              TOTAL IN =           0.2149

          OUT:                                     OUT:
          ----                                     ----
             STORAGE =      128730.5938               STORAGE =       1.1420E-06
       CONSTANT HEAD =     9165200.0000         CONSTANT HEAD =           0.1075
                 MNW =     9291055.0000                   MNW =           0.1074

           TOTAL OUT =    18584986.0000             TOTAL OUT =           0.2149

            IN - OUT =         594.0000              IN - OUT =      -2.4289E-06

 PERCENT DISCREPANCY =           0.00     PERCENT DISCREPANCY =           0.00






          TIME SUMMARY AT END OF TIME STEP 100 IN STRESS PERIOD    1
                    SECONDS     MINUTES      HOURS       DAYS        YEARS
                    -----------------------------------------------------------
   TIME STEP LENGTH 7.85512E+06 1.30919E+05  2182.0      90.916     0.24891    
 STRESS PERIOD TIME 8.64000E+07 1.44000E+06  24000.      1000.0      2.7379    
         TOTAL TIME 8.64000E+07 1.44000E+06  24000.      1000.0      2.7379    
1
